2025-03-18 04:06:58,488 - INFO - Ingress_Enter RAH1NHAI
2025-03-18 04:06:58,590 - INFO - Ingress_Enter W5CLIWYF
2025-03-18 04:06:58,663 - INFO - Ingress_Enter C9GHPE3K
2025-03-18 04:06:58,813 - INFO - Ingress_Enter LEJE902M
2025-03-18 04:06:59,105 - INFO - Ingress_Enter UR0QZ7HX
2025-03-18 04:06:59,241 - INFO - Ingress_Enter 1NURJPDP
2025-03-18 04:06:59,290 - INFO - Ingress_Enter CNNTEH5T
2025-03-18 04:06:59,320 - INFO - Ingress_Enter EPKY8THP
2025-03-18 04:06:59,447 - INFO - Ingress_Enter 4WLFAE5P
2025-03-18 04:06:59,544 - INFO - Ingress_Exit RAH1NHAI
2025-03-18 04:06:59,549 - INFO - Ingress_Enter C8BP9CJV
2025-03-18 04:06:59,580 - INFO - Ingress_Enter 00JSVFUH
2025-03-18 04:06:59,848 - INFO - Ingress_Exit C9GHPE3K
2025-03-18 04:06:59,850 - INFO - Ingress_Enter 9ESR1JO6
2025-03-18 04:06:59,850 - INFO - Ingress_Exit W5CLIWYF
2025-03-18 04:06:59,855 - INFO - Ingress_Exit LEJE902M
2025-03-18 04:07:00,112 - INFO - Ingress_Exit UR0QZ7HX
2025-03-18 04:07:00,131 - INFO - Ingress_Exit 1NURJPDP
2025-03-18 04:07:00,204 - INFO - Ingress_Exit CNNTEH5T
2025-03-18 04:07:00,280 - INFO - Ingress_Exit C8BP9CJV
2025-03-18 04:07:00,569 - INFO - Ingress_Exit 4WLFAE5P
2025-03-18 04:07:00,571 - INFO - Ingress_Exit 00JSVFUH
2025-03-18 04:07:00,648 - INFO - Ingress_Exit EPKY8THP
2025-03-18 04:07:00,797 - INFO - Ingress_Exit 9ESR1JO6
2025-03-18 04:07:01,709 - INFO - Ingress_Enter 7L7SLTZH
2025-03-18 04:07:01,864 - INFO - Ingress_Enter HXFN13DK
2025-03-18 04:07:01,870 - INFO - Ingress_Enter 66QDLTMH
2025-03-18 04:07:02,003 - INFO - Ingress_Enter HTIWMT3D
2025-03-18 04:07:02,070 - INFO - Ingress_Enter V0Q8KEUR
2025-03-18 04:07:02,166 - INFO - Ingress_Enter EU0W9EO1
2025-03-18 04:07:02,168 - INFO - Ingress_Enter YOYSNL6W
2025-03-18 04:07:02,168 - INFO - Ingress_Enter ON7FFLQW
2025-03-18 04:07:02,464 - INFO - Ingress_Exit HXFN13DK
2025-03-18 04:07:02,477 - INFO - Ingress_Exit 7L7SLTZH
2025-03-18 04:07:02,581 - INFO - Ingress_Exit 66QDLTMH
2025-03-18 04:07:02,677 - INFO - Ingress_Enter 2OR9F27A
2025-03-18 04:07:02,704 - INFO - Ingress_Enter Q4ZT1R3O
2025-03-18 04:07:02,893 - INFO - Ingress_Exit HTIWMT3D
2025-03-18 04:07:02,911 - INFO - Ingress_Exit EU0W9EO1
2025-03-18 04:07:02,921 - INFO - Ingress_Exit YOYSNL6W
2025-03-18 04:07:02,965 - INFO - Ingress_Enter WY6ZYP9Z
2025-03-18 04:07:02,997 - INFO - Ingress_Enter YP368KED
2025-03-18 04:07:03,045 - INFO - Ingress_Enter I32359HP
2025-03-18 04:07:03,067 - INFO - Ingress_Exit ON7FFLQW
2025-03-18 04:07:03,095 - INFO - Ingress_Exit V0Q8KEUR
2025-03-18 04:07:03,109 - INFO - Ingress_Enter GJ1E1K81
2025-03-18 04:07:03,142 - INFO - Ingress_Enter 0AIUS53W
2025-03-18 04:07:03,152 - INFO - Ingress_Enter RI99MQM0
2025-03-18 04:07:03,333 - INFO - Ingress_Exit Q4ZT1R3O
2025-03-18 04:07:03,340 - INFO - Ingress_Enter 2AJ1BWCE
2025-03-18 04:07:03,352 - INFO - Ingress_Exit 2OR9F27A
2025-03-18 04:07:03,410 - INFO - Ingress_Enter 2FQ7NK9W
2025-03-18 04:07:03,441 - INFO - Ingress_Enter 53WEYETA
2025-03-18 04:07:03,660 - INFO - Ingress_Enter CRDL4HMI
2025-03-18 04:07:03,870 - INFO - Ingress_Enter V7M3WT43
2025-03-18 04:07:03,906 - INFO - Ingress_Exit YP368KED
2025-03-18 04:07:03,907 - INFO - Ingress_Exit I32359HP
2025-03-18 04:07:03,918 - INFO - Ingress_Exit WY6ZYP9Z
2025-03-18 04:07:04,030 - INFO - Ingress_Exit GJ1E1K81
2025-03-18 04:07:04,031 - INFO - Ingress_Exit 0AIUS53W
2025-03-18 04:07:04,036 - INFO - Ingress_Exit RI99MQM0
2025-03-18 04:07:04,131 - INFO - Ingress_Enter 9B2CUS7X
2025-03-18 04:07:04,190 - INFO - Ingress_Enter HL1MECFN
2025-03-18 04:07:04,199 - INFO - Ingress_Exit 2AJ1BWCE
2025-03-18 04:07:04,221 - INFO - Ingress_Enter QTDAD7VK
2025-03-18 04:07:04,355 - INFO - Ingress_Exit 2FQ7NK9W
2025-03-18 04:07:04,356 - INFO - Ingress_Exit 53WEYETA
2025-03-18 04:07:04,417 - INFO - Ingress_Enter P7RDQFLZ
2025-03-18 04:07:04,457 - INFO - Ingress_Exit CRDL4HMI
2025-03-18 04:07:04,558 - INFO - Ingress_Enter C2XZF4E7
2025-03-18 04:07:04,603 - INFO - Ingress_Enter 5DHS339D
2025-03-18 04:07:04,622 - INFO - Ingress_Enter 05XL9BUN
2025-03-18 04:07:04,630 - INFO - Ingress_Enter VVY6SEV4
2025-03-18 04:07:04,660 - INFO - Ingress_Enter 2LHDXPPF
2025-03-18 04:07:04,713 - INFO - Ingress_Exit V7M3WT43
2025-03-18 04:07:04,842 - INFO - Ingress_Enter H44XK8RQ
2025-03-18 04:07:04,890 - INFO - Ingress_Enter 7ZMMS0LW
2025-03-18 04:07:04,918 - INFO - Ingress_Enter UXATQ923
2025-03-18 04:07:05,022 - INFO - Ingress_Enter 7F8UUI92
2025-03-18 04:07:05,132 - INFO - Ingress_Exit QTDAD7VK
2025-03-18 04:07:05,140 - INFO - Ingress_Enter NT8R2PL2
2025-03-18 04:07:05,161 - INFO - Ingress_Exit HL1MECFN
2025-03-18 04:07:05,230 - INFO - Ingress_Enter VOK9G43V
2025-03-18 04:07:05,231 - INFO - Ingress_Exit 9B2CUS7X
2025-03-18 04:07:05,242 - INFO - Ingress_Exit P7RDQFLZ
2025-03-18 04:07:05,321 - INFO - Ingress_Exit 5DHS339D
2025-03-18 04:07:05,456 - INFO - Ingress_Enter JRO77704
2025-03-18 04:07:05,492 - INFO - Ingress_Enter M5VMWA5D
2025-03-18 04:07:05,525 - INFO - Ingress_Exit VVY6SEV4
2025-03-18 04:07:05,526 - INFO - Ingress_Exit 2LHDXPPF
2025-03-18 04:07:05,594 - INFO - Ingress_Exit C2XZF4E7
2025-03-18 04:07:05,601 - INFO - Ingress_Exit 05XL9BUN
2025-03-18 04:07:05,666 - INFO - Ingress_Enter ZDYQP9L0
2025-03-18 04:07:05,712 - INFO - Ingress_Enter 6W54Z14P
2025-03-18 04:07:05,731 - INFO - Ingress_Exit 7ZMMS0LW
2025-03-18 04:07:05,818 - INFO - Ingress_Exit 7F8UUI92
2025-03-18 04:07:05,868 - INFO - Ingress_Enter MYTRZSTU
2025-03-18 04:07:05,871 - INFO - Ingress_Enter WTB3IAKQ
2025-03-18 04:07:05,886 - INFO - Ingress_Exit H44XK8RQ
2025-03-18 04:07:05,913 - INFO - Ingress_Enter M6K0CTU9
2025-03-18 04:07:05,958 - INFO - Ingress_Exit NT8R2PL2
2025-03-18 04:07:05,983 - INFO - Ingress_Exit UXATQ923
2025-03-18 04:07:06,032 - INFO - Ingress_Enter RH2K2M6I
2025-03-18 04:07:06,099 - INFO - Ingress_Enter 7SJBO92U
2025-03-18 04:07:06,100 - INFO - Ingress_Exit VOK9G43V
2025-03-18 04:07:06,125 - INFO - Ingress_Enter WUW897XT
2025-03-18 04:07:06,157 - INFO - Ingress_Enter 3VH1B9Q1
2025-03-18 04:07:06,226 - INFO - Ingress_Enter 3WP0JUI7
2025-03-18 04:07:06,313 - INFO - Ingress_Enter UGUED009
2025-03-18 04:07:06,387 - INFO - Ingress_Exit M5VMWA5D
2025-03-18 04:07:06,429 - INFO - Ingress_Exit JRO77704
2025-03-18 04:07:06,517 - INFO - Ingress_Exit ZDYQP9L0
2025-03-18 04:07:06,625 - INFO - Ingress_Exit 6W54Z14P
2025-03-18 04:07:06,680 - INFO - Ingress_Exit WTB3IAKQ
2025-03-18 04:07:06,711 - INFO - Ingress_Exit M6K0CTU9
2025-03-18 04:07:06,815 - INFO - Ingress_Exit MYTRZSTU
2025-03-18 04:07:06,819 - INFO - Ingress_Enter 3B5KS90F
2025-03-18 04:07:06,877 - INFO - Ingress_Enter HKH95BKQ
2025-03-18 04:07:06,940 - INFO - Ingress_Enter DZBRJ14M
2025-03-18 04:07:06,979 - INFO - Ingress_Enter KJ0XV43O
2025-03-18 04:07:06,982 - INFO - Ingress_Exit RH2K2M6I
2025-03-18 04:07:06,983 - INFO - Ingress_Exit 7SJBO92U
2025-03-18 04:07:07,083 - INFO - Ingress_Exit 3VH1B9Q1
2025-03-18 04:07:07,105 - INFO - Ingress_Exit WUW897XT
2025-03-18 04:07:07,114 - INFO - Ingress_Enter OMZNWIBW
2025-03-18 04:07:07,161 - INFO - Ingress_Enter ENOJPCTD
2025-03-18 04:07:07,171 - INFO - Ingress_Enter 9L713VVL
2025-03-18 04:07:07,207 - INFO - Ingress_Enter IFI9P9XN
2025-03-18 04:07:07,211 - INFO - Ingress_Exit 3WP0JUI7
2025-03-18 04:07:07,234 - INFO - Ingress_Enter 45H0UWSB
2025-03-18 04:07:07,341 - INFO - Ingress_Enter VFGEIJR0
2025-03-18 04:07:07,378 - INFO - Ingress_Enter XUAA8ZUK
2025-03-18 04:07:07,448 - INFO - Ingress_Exit UGUED009
2025-03-18 04:07:07,640 - INFO - Ingress_Exit 3B5KS90F
2025-03-18 04:07:07,740 - INFO - Ingress_Exit HKH95BKQ
2025-03-18 04:07:07,743 - INFO - Ingress_Exit DZBRJ14M
2025-03-18 04:07:07,819 - INFO - Ingress_Enter 843PCH1I
2025-03-18 04:07:07,824 - INFO - Ingress_Enter 8PL46BES
2025-03-18 04:07:07,849 - INFO - Ingress_Exit KJ0XV43O
2025-03-18 04:07:07,874 - INFO - Ingress_Enter 9E2YI4OR
2025-03-18 04:07:07,969 - INFO - Ingress_Enter 8RF8LTXH
2025-03-18 04:07:08,013 - INFO - Ingress_Exit 9L713VVL
2025-03-18 04:07:08,120 - INFO - Ingress_Enter MYP12JLK
2025-03-18 04:07:08,193 - INFO - Ingress_Exit 45H0UWSB
2025-03-18 04:07:08,259 - INFO - Ingress_Exit OMZNWIBW
2025-03-18 04:07:08,261 - INFO - Ingress_Exit ENOJPCTD
2025-03-18 04:07:08,263 - INFO - Ingress_Exit IFI9P9XN
2025-03-18 04:07:08,283 - INFO - Ingress_Exit VFGEIJR0
2025-03-18 04:07:08,391 - INFO - Ingress_Exit XUAA8ZUK
2025-03-18 04:07:08,706 - INFO - Ingress_Exit 8PL46BES
2025-03-18 04:07:08,771 - INFO - Ingress_Exit 8RF8LTXH
2025-03-18 04:07:08,803 - INFO - Ingress_Exit 9E2YI4OR
2025-03-18 04:07:08,981 - INFO - Ingress_Exit MYP12JLK
2025-03-18 04:07:08,987 - INFO - Ingress_Enter 66YG69IW
2025-03-18 04:07:09,013 - INFO - Ingress_Enter T744N4IE
2025-03-18 04:07:09,064 - INFO - Ingress_Exit 843PCH1I
2025-03-18 04:07:09,102 - INFO - Ingress_Enter RLFDQBA7
2025-03-18 04:07:09,259 - INFO - Ingress_Enter P66BNCDD
2025-03-18 04:07:09,274 - INFO - Ingress_Enter PCEWYTLD
2025-03-18 04:07:09,280 - INFO - Ingress_Enter 0R553LSW
2025-03-18 04:07:09,295 - INFO - Ingress_Enter XKT57RVM
2025-03-18 04:07:09,382 - INFO - Ingress_Enter 59JGTUAN
2025-03-18 04:07:09,412 - INFO - Ingress_Enter 5TB8F2MM
2025-03-18 04:07:09,527 - INFO - Ingress_Enter NL3UZF38
2025-03-18 04:07:09,539 - INFO - Ingress_Enter LFYL8O9W
2025-03-18 04:07:09,604 - INFO - Ingress_Enter 7EZH5TUD
2025-03-18 04:07:09,700 - INFO - Ingress_Enter NDG2DGRU
2025-03-18 04:07:09,886 - INFO - Ingress_Enter I8NNTH4C
2025-03-18 04:07:09,971 - INFO - Ingress_Exit 66YG69IW
2025-03-18 04:07:10,142 - INFO - Ingress_Enter YPJZ9VDT
2025-03-18 04:07:10,155 - INFO - Ingress_Exit XKT57RVM
2025-03-18 04:07:10,267 - INFO - Ingress_Exit RLFDQBA7
2025-03-18 04:07:10,304 - INFO - Ingress_Exit PCEWYTLD
2025-03-18 04:07:10,359 - INFO - Ingress_Exit LFYL8O9W
2025-03-18 04:07:10,383 - INFO - Ingress_Exit 59JGTUAN
2025-03-18 04:07:10,422 - INFO - Ingress_Exit NL3UZF38
2025-03-18 04:07:10,438 - INFO - Ingress_Exit T744N4IE
2025-03-18 04:07:10,441 - INFO - Ingress_Exit P66BNCDD
2025-03-18 04:07:10,442 - INFO - Ingress_Exit 0R553LSW
2025-03-18 04:07:10,479 - INFO - Ingress_Exit 7EZH5TUD
2025-03-18 04:07:10,702 - INFO - Ingress_Enter 3D0N920D
2025-03-18 04:07:10,716 - INFO - Ingress_Exit 5TB8F2MM
2025-03-18 04:07:10,719 - INFO - Ingress_Enter G1JTJQH5
2025-03-18 04:07:10,808 - INFO - Ingress_Enter PCY2KGKY
2025-03-18 04:07:10,846 - INFO - Ingress_Enter FW8IOWPT
2025-03-18 04:07:10,923 - INFO - Ingress_Exit NDG2DGRU
2025-03-18 04:07:10,952 - INFO - Ingress_Enter 5QEKG6AH
2025-03-18 04:07:10,990 - INFO - Ingress_Enter 0BILXUAA
2025-03-18 04:07:11,040 - INFO - Ingress_Enter GXF94HHY
2025-03-18 04:07:11,139 - INFO - Ingress_Exit I8NNTH4C
2025-03-18 04:07:11,152 - INFO - Ingress_Enter DXGEYYQT
2025-03-18 04:07:11,156 - INFO - Ingress_Exit YPJZ9VDT
2025-03-18 04:07:11,216 - INFO - Ingress_Enter SSG2LCWQ
2025-03-18 04:07:11,252 - INFO - Ingress_Enter C5ZWGGTL
2025-03-18 04:07:11,343 - INFO - Ingress_Enter 70G49AB0
2025-03-18 04:07:11,394 - INFO - Ingress_Enter B2J5VJGX
2025-03-18 04:07:11,554 - INFO - Ingress_Exit G1JTJQH5
2025-03-18 04:07:11,681 - INFO - Ingress_Enter A9N0AK55
2025-03-18 04:07:11,692 - INFO - Ingress_Exit 3D0N920D
2025-03-18 04:07:11,793 - INFO - Ingress_Exit FW8IOWPT
2025-03-18 04:07:11,862 - INFO - Ingress_Enter F4G3GBOW
2025-03-18 04:07:11,946 - INFO - Ingress_Exit PCY2KGKY
2025-03-18 04:07:12,000 - INFO - Ingress_Exit 5QEKG6AH
2025-03-18 04:07:12,029 - INFO - Ingress_Enter BRD0ONFJ
2025-03-18 04:07:12,212 - INFO - Ingress_Enter EXSX26FG
2025-03-18 04:07:12,251 - INFO - Ingress_Exit 0BILXUAA
2025-03-18 04:07:12,278 - INFO - Ingress_Exit GXF94HHY
2025-03-18 04:07:12,395 - INFO - Ingress_Enter AOGKLYQF
2025-03-18 04:07:12,439 - INFO - Ingress_Enter HA2WXFUI
2025-03-18 04:07:12,489 - INFO - Ingress_Exit DXGEYYQT
2025-03-18 04:07:12,502 - INFO - Ingress_Exit 70G49AB0
2025-03-18 04:07:12,554 - INFO - Ingress_Exit SSG2LCWQ
2025-03-18 04:07:12,590 - INFO - Ingress_Enter YYHNPB0F
2025-03-18 04:07:12,623 - INFO - Ingress_Enter WLCKUB8G
2025-03-18 04:07:12,627 - INFO - Ingress_Exit A9N0AK55
2025-03-18 04:07:12,646 - INFO - Ingress_Enter VH4WHR1Z
2025-03-18 04:07:12,666 - INFO - Ingress_Enter FR4YQIM7
2025-03-18 04:07:12,680 - INFO - Ingress_Exit C5ZWGGTL
2025-03-18 04:07:12,728 - INFO - Ingress_Exit B2J5VJGX
2025-03-18 04:07:12,737 - INFO - Ingress_Enter GBUNGJ4V
2025-03-18 04:07:12,889 - INFO - Ingress_Exit F4G3GBOW
2025-03-18 04:07:13,219 - INFO - Ingress_Exit BRD0ONFJ
2025-03-18 04:07:13,257 - INFO - Ingress_Exit AOGKLYQF
2025-03-18 04:07:13,357 - INFO - Ingress_Exit EXSX26FG
2025-03-18 04:07:13,446 - INFO - Ingress_Exit YYHNPB0F
2025-03-18 04:07:13,460 - INFO - Ingress_Enter HT69Y98Z
2025-03-18 04:07:13,486 - INFO - Ingress_Exit HA2WXFUI
2025-03-18 04:07:13,519 - INFO - Ingress_Enter GA1V45KB
2025-03-18 04:07:13,540 - INFO - Ingress_Enter Z0PPGTZ1
2025-03-18 04:07:13,566 - INFO - Ingress_Exit VH4WHR1Z
2025-03-18 04:07:13,579 - INFO - Ingress_Enter ND0KWJM4
2025-03-18 04:07:13,619 - INFO - Ingress_Exit WLCKUB8G
2025-03-18 04:07:13,689 - INFO - Ingress_Enter BQAJRYPQ
2025-03-18 04:07:13,706 - INFO - Ingress_Enter IXHSEQ91
2025-03-18 04:07:13,747 - INFO - Ingress_Enter 2J7V1ER1
2025-03-18 04:07:13,791 - INFO - Ingress_Enter 2EQHYAJI
2025-03-18 04:07:13,819 - INFO - Ingress_Exit FR4YQIM7
2025-03-18 04:07:13,943 - INFO - Ingress_Enter IU31BI7N
2025-03-18 04:07:14,029 - INFO - Ingress_Exit HT69Y98Z
2025-03-18 04:07:14,074 - INFO - Ingress_Exit GBUNGJ4V
2025-03-18 04:07:14,100 - INFO - Ingress_Enter AO53A3Q5
2025-03-18 04:07:14,156 - INFO - Ingress_Exit BQAJRYPQ
2025-03-18 04:07:14,191 - INFO - Ingress_Exit 2J7V1ER1
2025-03-18 04:07:14,220 - INFO - Ingress_Enter J22WMA4Z
2025-03-18 04:07:14,231 - INFO - Ingress_Enter Q6MXWSHD
2025-03-18 04:07:14,239 - INFO - Ingress_Exit GA1V45KB
2025-03-18 04:07:14,241 - INFO - Ingress_Exit Z0PPGTZ1
2025-03-18 04:07:14,243 - INFO - Ingress_Exit ND0KWJM4
2025-03-18 04:07:14,268 - INFO - Ingress_Enter 8MM1IR9I
2025-03-18 04:07:14,274 - INFO - Ingress_Exit IXHSEQ91
2025-03-18 04:07:14,410 - INFO - Ingress_Enter PJUD7IQL
2025-03-18 04:07:14,422 - INFO - Ingress_Exit 2EQHYAJI
2025-03-18 04:07:14,442 - INFO - Ingress_Enter Y9ML62YA
2025-03-18 04:07:14,488 - INFO - Ingress_Exit IU31BI7N
2025-03-18 04:07:14,492 - INFO - Ingress_Enter W5DW84G1
2025-03-18 04:07:14,683 - INFO - Ingress_Exit J22WMA4Z
2025-03-18 04:07:14,707 - INFO - Ingress_Enter ULSCO58A
2025-03-18 04:07:14,728 - INFO - Ingress_Enter 2K5PINGJ
2025-03-18 04:07:14,755 - INFO - Ingress_Enter P1DMCMBH
2025-03-18 04:07:14,814 - INFO - Ingress_Exit AO53A3Q5
2025-03-18 04:07:14,816 - INFO - Ingress_Exit Q6MXWSHD
2025-03-18 04:07:14,917 - INFO - Ingress_Exit 8MM1IR9I
2025-03-18 04:07:14,930 - INFO - Ingress_Enter RJJQHYY1
2025-03-18 04:07:14,951 - INFO - Ingress_Enter 9OTTLJUS
2025-03-18 04:07:14,958 - INFO - Ingress_Enter 88813D51
2025-03-18 04:07:14,980 - INFO - Ingress_Exit PJUD7IQL
2025-03-18 04:07:15,076 - INFO - Ingress_Exit Y9ML62YA
2025-03-18 04:07:15,095 - INFO - Ingress_Enter S3B2EHS0
2025-03-18 04:07:15,190 - INFO - Ingress_Exit W5DW84G1
2025-03-18 04:07:15,296 - INFO - Ingress_Enter QWOHB5XN
2025-03-18 04:07:15,321 - INFO - Ingress_Exit 2K5PINGJ
2025-03-18 04:07:15,357 - INFO - Ingress_Enter H84LT8L1
2025-03-18 04:07:15,451 - INFO - Ingress_Exit P1DMCMBH
2025-03-18 04:07:15,477 - INFO - Ingress_Exit ULSCO58A
2025-03-18 04:07:15,484 - INFO - Ingress_Exit 88813D51
2025-03-18 04:07:15,578 - INFO - Ingress_Exit 9OTTLJUS
2025-03-18 04:07:15,582 - INFO - Ingress_Enter VEGZELI4
2025-03-18 04:07:15,645 - INFO - Ingress_Enter 282WWJXK
2025-03-18 04:07:15,668 - INFO - Ingress_Enter 8MF4EIIJ
2025-03-18 04:07:15,682 - INFO - Ingress_Exit RJJQHYY1
2025-03-18 04:07:15,687 - INFO - Ingress_Enter NIZN6R2C
2025-03-18 04:07:15,699 - INFO - Ingress_Enter 3SWQRM6Y
2025-03-18 04:07:15,757 - INFO - Ingress_Enter 6TMN5YZO
2025-03-18 04:07:15,774 - INFO - Ingress_Enter 82VE6O7G
2025-03-18 04:07:15,776 - INFO - Ingress_Exit S3B2EHS0
2025-03-18 04:07:15,837 - INFO - Ingress_Enter NNB86O8Z
2025-03-18 04:07:15,842 - INFO - Ingress_Enter 10622NGO
2025-03-18 04:07:15,857 - INFO - Ingress_Enter BGNEJ6SC
2025-03-18 04:07:15,872 - INFO - Ingress_Enter 6E90LMRC
2025-03-18 04:07:16,068 - INFO - Ingress_Enter 4SNPX4ZX
2025-03-18 04:07:16,175 - INFO - Ingress_Exit H84LT8L1
2025-03-18 04:07:16,187 - INFO - Ingress_Exit QWOHB5XN
2025-03-18 04:07:16,228 - INFO - Ingress_Enter XS10I9PA
2025-03-18 04:07:16,295 - INFO - Ingress_Exit VEGZELI4
2025-03-18 04:07:16,362 - INFO - Ingress_Exit NIZN6R2C
2025-03-18 04:07:16,397 - INFO - Ingress_Enter UZZJE2I2
2025-03-18 04:07:16,504 - INFO - Ingress_Exit 3SWQRM6Y
2025-03-18 04:07:16,505 - INFO - Ingress_Exit 6TMN5YZO
2025-03-18 04:07:16,537 - INFO - Ingress_Exit 8MF4EIIJ
2025-03-18 04:07:16,553 - INFO - Ingress_Enter 8EXTC6US
2025-03-18 04:07:16,606 - INFO - Ingress_Exit 82VE6O7G
2025-03-18 04:07:16,745 - INFO - Ingress_Exit BGNEJ6SC
2025-03-18 04:07:16,753 - INFO - Ingress_Exit 4SNPX4ZX
2025-03-18 04:07:16,785 - INFO - Ingress_Exit 282WWJXK
2025-03-18 04:07:16,877 - INFO - Ingress_Enter JHOPIU53
2025-03-18 04:07:16,992 - INFO - Ingress_Enter ODCT4ERY
2025-03-18 04:07:17,023 - INFO - Ingress_Enter Q8E0ARYZ
2025-03-18 04:07:17,043 - INFO - Ingress_Exit 6E90LMRC
2025-03-18 04:07:17,044 - INFO - Ingress_Exit NNB86O8Z
2025-03-18 04:07:17,046 - INFO - Ingress_Exit 10622NGO
2025-03-18 04:07:17,051 - INFO - Ingress_Enter XT0BD3MB
2025-03-18 04:07:17,077 - INFO - Ingress_Exit XS10I9PA
2025-03-18 04:07:17,100 - INFO - Ingress_Exit UZZJE2I2
2025-03-18 04:07:17,226 - INFO - Ingress_Enter 4MX72OUX
2025-03-18 04:07:17,417 - INFO - Ingress_Enter 97WKJEHF
2025-03-18 04:07:17,498 - INFO - Ingress_Enter Q685EGXU
2025-03-18 04:07:17,551 - INFO - Ingress_Enter QDD6V0NY
2025-03-18 04:07:17,571 - INFO - Ingress_Enter G6XD36XE
2025-03-18 04:07:17,618 - INFO - Ingress_Enter LS5DJZ75
2025-03-18 04:07:17,639 - INFO - Ingress_Enter 20QOSYXE
2025-03-18 04:07:17,705 - INFO - Ingress_Exit JHOPIU53
2025-03-18 04:07:17,761 - INFO - Ingress_Exit 8EXTC6US
2025-03-18 04:07:17,812 - INFO - Ingress_Enter 18M8NEVL
2025-03-18 04:07:17,821 - INFO - Ingress_Enter 7S3V78SC
2025-03-18 04:07:17,923 - INFO - Ingress_Exit ODCT4ERY
2025-03-18 04:07:17,923 - INFO - Ingress_Exit Q8E0ARYZ
2025-03-18 04:07:17,961 - INFO - Ingress_Exit XT0BD3MB
2025-03-18 04:07:18,082 - INFO - Ingress_Exit 97WKJEHF
2025-03-18 04:07:18,101 - INFO - Ingress_Exit 4MX72OUX
2025-03-18 04:07:18,166 - INFO - Ingress_Enter 9R7NNXKG
2025-03-18 04:07:18,192 - INFO - Ingress_Enter ZZMP1J51
2025-03-18 04:07:18,213 - INFO - Ingress_Enter 4IJQSJQG
2025-03-18 04:07:18,283 - INFO - Ingress_Enter 715M7QMT
2025-03-18 04:07:18,298 - INFO - Ingress_Enter ZHLBHUS6
2025-03-18 04:07:18,357 - INFO - Ingress_Enter KSEGECOA
2025-03-18 04:07:18,363 - INFO - Ingress_Enter JF8T9V9J
2025-03-18 04:07:18,365 - INFO - Ingress_Exit Q685EGXU
2025-03-18 04:07:18,365 - INFO - Ingress_Exit QDD6V0NY
2025-03-18 04:07:18,415 - INFO - Ingress_Exit G6XD36XE
2025-03-18 04:07:18,440 - INFO - Ingress_Exit LS5DJZ75
2025-03-18 04:07:18,440 - INFO - Ingress_Exit 20QOSYXE
2025-03-18 04:07:18,601 - INFO - Ingress_Exit 18M8NEVL
2025-03-18 04:07:18,602 - INFO - Ingress_Exit 7S3V78SC
2025-03-18 04:07:18,816 - INFO - Ingress_Enter QW004L02
2025-03-18 04:07:18,871 - INFO - Ingress_Enter HLJ3NNM6
2025-03-18 04:07:18,918 - INFO - Ingress_Enter S7IME9B1
2025-03-18 04:07:19,123 - INFO - Ingress_Enter 81DWDERY
2025-03-18 04:07:19,159 - INFO - Ingress_Exit ZZMP1J51
2025-03-18 04:07:19,176 - INFO - Ingress_Exit 9R7NNXKG
2025-03-18 04:07:19,202 - INFO - Ingress_Enter OCGSHCNC
2025-03-18 04:07:19,257 - INFO - Ingress_Exit 4IJQSJQG
2025-03-18 04:07:19,270 - INFO - Ingress_Exit 715M7QMT
2025-03-18 04:07:19,421 - INFO - Ingress_Exit JF8T9V9J
2025-03-18 04:07:19,496 - INFO - Ingress_Exit ZHLBHUS6
2025-03-18 04:07:19,497 - INFO - Ingress_Exit KSEGECOA
2025-03-18 04:07:19,593 - INFO - Ingress_Enter L0AQMRPD
2025-03-18 04:07:19,620 - INFO - Ingress_Enter Q78MHDQ0
2025-03-18 04:07:19,693 - INFO - Ingress_Exit HLJ3NNM6
2025-03-18 04:07:19,879 - INFO - Ingress_Exit QW004L02
2025-03-18 04:07:20,003 - INFO - Ingress_Exit S7IME9B1
2025-03-18 04:07:20,005 - INFO - Ingress_Exit OCGSHCNC
2025-03-18 04:07:20,021 - INFO - Ingress_Exit 81DWDERY
2025-03-18 04:07:20,446 - INFO - Ingress_Enter 5F4ROEGE
2025-03-18 04:07:20,456 - INFO - Ingress_Enter Z6BH8Q7C
2025-03-18 04:07:20,478 - INFO - Ingress_Enter Z3AG1382
2025-03-18 04:07:20,545 - INFO - Ingress_Enter FW9KGW71
2025-03-18 04:07:20,551 - INFO - Ingress_Enter QWW9T870
2025-03-18 04:07:20,607 - INFO - Ingress_Exit L0AQMRPD
2025-03-18 04:07:20,645 - INFO - Ingress_Exit Q78MHDQ0
2025-03-18 04:07:20,909 - INFO - Ingress_Enter QA9302C7
2025-03-18 04:07:20,932 - INFO - Ingress_Exit FW9KGW71
2025-03-18 04:07:20,993 - INFO - Ingress_Enter UZMJYWCR
2025-03-18 04:07:21,029 - INFO - Ingress_Exit Z6BH8Q7C
2025-03-18 04:07:21,045 - INFO - Ingress_Exit Z3AG1382
2025-03-18 04:07:21,083 - INFO - Ingress_Enter JMG0TU99
2025-03-18 04:07:21,099 - INFO - Ingress_Enter 6OPAHLBZ
2025-03-18 04:07:21,172 - INFO - Ingress_Enter KFTWBNO3
2025-03-18 04:07:21,183 - INFO - Ingress_Enter 99ETXIBS
2025-03-18 04:07:21,234 - INFO - Ingress_Exit 5F4ROEGE
2025-03-18 04:07:21,281 - INFO - Ingress_Exit QWW9T870
2025-03-18 04:07:21,337 - INFO - Ingress_Enter ZFIEREXS
2025-03-18 04:07:21,524 - INFO - Ingress_Exit QA9302C7
2025-03-18 04:07:21,585 - INFO - Ingress_Exit 99ETXIBS
2025-03-18 04:07:21,698 - INFO - Ingress_Exit JMG0TU99
2025-03-18 04:07:21,699 - INFO - Ingress_Exit UZMJYWCR
2025-03-18 04:07:21,704 - INFO - Ingress_Exit KFTWBNO3
2025-03-18 04:07:21,719 - INFO - Ingress_Exit 6OPAHLBZ
2025-03-18 04:07:21,798 - INFO - Ingress_Enter 65WKRPIW
2025-03-18 04:07:21,863 - INFO - Ingress_Enter T88SPG27
2025-03-18 04:07:21,956 - INFO - Ingress_Enter 2YTW93SD
2025-03-18 04:07:21,992 - INFO - Ingress_Enter 80HFL93H
2025-03-18 04:07:22,114 - INFO - Ingress_Exit ZFIEREXS
2025-03-18 04:07:22,176 - INFO - Ingress_Enter VUEYMRLI
2025-03-18 04:07:22,295 - INFO - Ingress_Enter QLFA3QXD
2025-03-18 04:07:22,549 - INFO - Ingress_Enter Y9XZDDKQ
2025-03-18 04:07:22,557 - INFO - Ingress_Exit 65WKRPIW
2025-03-18 04:07:22,670 - INFO - Ingress_Enter LLTD1J64
2025-03-18 04:07:22,672 - INFO - Ingress_Enter H9FEDZYN
2025-03-18 04:07:22,713 - INFO - Ingress_Exit 80HFL93H
2025-03-18 04:07:22,750 - INFO - Ingress_Enter A704DW7M
2025-03-18 04:07:22,766 - INFO - Ingress_Enter QDD775K7
2025-03-18 04:07:22,777 - INFO - Ingress_Enter VWG91HRT
2025-03-18 04:07:22,802 - INFO - Ingress_Exit T88SPG27
2025-03-18 04:07:22,804 - INFO - Ingress_Exit 2YTW93SD
2025-03-18 04:07:22,914 - INFO - Ingress_Exit VUEYMRLI
2025-03-18 04:07:23,170 - INFO - Ingress_Exit QLFA3QXD
2025-03-18 04:07:23,256 - INFO - Ingress_Enter I7A7C4RU
2025-03-18 04:07:23,284 - INFO - Ingress_Exit H9FEDZYN
2025-03-18 04:07:23,285 - INFO - Ingress_Enter K1V0P2Z3
2025-03-18 04:07:23,364 - INFO - Ingress_Exit Y9XZDDKQ
2025-03-18 04:07:23,499 - INFO - Ingress_Exit A704DW7M
2025-03-18 04:07:23,642 - INFO - Ingress_Exit LLTD1J64
2025-03-18 04:07:23,692 - INFO - Ingress_Enter 1N7XO9TV
2025-03-18 04:07:23,734 - INFO - Ingress_Enter 2PSA6WID
2025-03-18 04:07:23,825 - INFO - Ingress_Exit QDD775K7
2025-03-18 04:07:23,827 - INFO - Ingress_Exit VWG91HRT
2025-03-18 04:07:23,873 - INFO - Ingress_Enter UPK8EHGY
2025-03-18 04:07:23,994 - INFO - Ingress_Enter 9SBU0RZE
2025-03-18 04:07:24,098 - INFO - Ingress_Enter DTKUTR3L
2025-03-18 04:07:24,105 - INFO - Ingress_Exit K1V0P2Z3
2025-03-18 04:07:24,229 - INFO - Ingress_Enter OFKL4FUA
2025-03-18 04:07:24,236 - INFO - Ingress_Exit I7A7C4RU
2025-03-18 04:07:24,256 - INFO - Ingress_Enter BTK4PKQN
2025-03-18 04:07:24,287 - INFO - Ingress_Enter F85WVZYL
2025-03-18 04:07:24,406 - INFO - Ingress_Enter HSB3B2EK
2025-03-18 04:07:24,477 - INFO - Ingress_Enter DAX22FXI
2025-03-18 04:07:24,635 - INFO - Ingress_Exit 2PSA6WID
2025-03-18 04:07:24,642 - INFO - Ingress_Exit UPK8EHGY
2025-03-18 04:07:24,665 - INFO - Ingress_Enter Q2MC2MG8
2025-03-18 04:07:24,737 - INFO - Ingress_Exit 1N7XO9TV
2025-03-18 04:07:24,831 - INFO - Ingress_Enter H5YOVGF1
2025-03-18 04:07:24,945 - INFO - Ingress_Exit 9SBU0RZE
2025-03-18 04:07:24,974 - INFO - Ingress_Exit OFKL4FUA
2025-03-18 04:07:25,066 - INFO - Ingress_Exit DTKUTR3L
2025-03-18 04:07:25,090 - INFO - Ingress_Exit BTK4PKQN
2025-03-18 04:07:25,197 - INFO - Ingress_Exit HSB3B2EK
2025-03-18 04:07:25,285 - INFO - Ingress_Exit DAX22FXI
2025-03-18 04:07:25,316 - INFO - Ingress_Exit F85WVZYL
2025-03-18 04:07:25,381 - INFO - Ingress_Enter K63D75K5
2025-03-18 04:07:25,389 - INFO - Ingress_Exit Q2MC2MG8
2025-03-18 04:07:25,445 - INFO - Ingress_Enter 3AESJ8BK
2025-03-18 04:07:25,494 - INFO - Ingress_Enter NGC1LJKK
2025-03-18 04:07:25,592 - INFO - Ingress_Enter GLXL0L15
2025-03-18 04:07:25,719 - INFO - Ingress_Exit H5YOVGF1
2025-03-18 04:07:26,047 - INFO - Ingress_Enter 49F81CU3
2025-03-18 04:07:26,125 - INFO - Ingress_Enter HK96TTIO
2025-03-18 04:07:26,184 - INFO - Ingress_Enter AAJF6ZUM
2025-03-18 04:07:26,231 - INFO - Ingress_Enter WITSH8Y4
2025-03-18 04:07:26,358 - INFO - Ingress_Exit K63D75K5
2025-03-18 04:07:26,376 - INFO - Ingress_Enter 33P3YNOO
2025-03-18 04:07:26,394 - INFO - Ingress_Exit 3AESJ8BK
2025-03-18 04:07:26,415 - INFO - Ingress_Exit NGC1LJKK
2025-03-18 04:07:26,418 - INFO - Ingress_Enter AMGDCJIJ
2025-03-18 04:07:26,458 - INFO - Ingress_Enter ZH490H4M
2025-03-18 04:07:26,466 - INFO - Ingress_Enter OGRV1GZ1
2025-03-18 04:07:26,498 - INFO - Ingress_Exit GLXL0L15
2025-03-18 04:07:26,510 - INFO - Ingress_Enter QKWZ6HWI
2025-03-18 04:07:26,564 - INFO - Ingress_Enter EXS8VV74
2025-03-18 04:07:26,886 - INFO - Ingress_Exit 49F81CU3
2025-03-18 04:07:27,118 - INFO - Ingress_Enter AG12F5AU
2025-03-18 04:07:27,128 - INFO - Ingress_Exit HK96TTIO
2025-03-18 04:07:27,167 - INFO - Ingress_Enter 45DA5FMM
2025-03-18 04:07:27,172 - INFO - Ingress_Exit AAJF6ZUM
2025-03-18 04:07:27,250 - INFO - Ingress_Enter 6KW7I1SO
2025-03-18 04:07:27,268 - INFO - Ingress_Exit AMGDCJIJ
2025-03-18 04:07:27,398 - INFO - Ingress_Exit ZH490H4M
2025-03-18 04:07:27,400 - INFO - Ingress_Exit OGRV1GZ1
2025-03-18 04:07:27,441 - INFO - Ingress_Exit WITSH8Y4
2025-03-18 04:07:27,442 - INFO - Ingress_Exit 33P3YNOO
2025-03-18 04:07:27,546 - INFO - Ingress_Exit QKWZ6HWI
2025-03-18 04:07:27,576 - INFO - Ingress_Enter BS0RHJ78
2025-03-18 04:07:27,699 - INFO - Ingress_Exit EXS8VV74
2025-03-18 04:07:27,732 - INFO - Ingress_Enter W1GONC5N
2025-03-18 04:07:27,769 - INFO - Ingress_Exit AG12F5AU
2025-03-18 04:07:27,836 - INFO - Ingress_Enter 7IT3JCBD
2025-03-18 04:07:27,842 - INFO - Ingress_Exit 45DA5FMM
2025-03-18 04:07:27,880 - INFO - Ingress_Enter ARFAI5W3
2025-03-18 04:07:27,909 - INFO - Ingress_Enter GVB2MEWD
2025-03-18 04:07:27,946 - INFO - Ingress_Exit 6KW7I1SO
2025-03-18 04:07:28,092 - INFO - Ingress_Exit W1GONC5N
2025-03-18 04:07:28,143 - INFO - Ingress_Enter FVQ1534K
2025-03-18 04:07:28,148 - INFO - Ingress_Enter 0PLHE8LC
2025-03-18 04:07:28,321 - INFO - Ingress_Exit BS0RHJ78
2025-03-18 04:07:28,353 - INFO - Ingress_Exit GVB2MEWD
2025-03-18 04:07:28,416 - INFO - Ingress_Enter EG7A2C6W
2025-03-18 04:07:28,497 - INFO - Ingress_Enter DZ0L1SXL
2025-03-18 04:07:28,508 - INFO - Ingress_Enter C0QVF6WD
2025-03-18 04:07:28,608 - INFO - Ingress_Exit ARFAI5W3
2025-03-18 04:07:28,760 - INFO - Ingress_Exit 7IT3JCBD
2025-03-18 04:07:28,885 - INFO - Ingress_Enter I6DHZQ6C
2025-03-18 04:07:28,897 - INFO - Ingress_Enter S73Z80U3
2025-03-18 04:07:28,917 - INFO - Ingress_Enter BI1U9JVW
2025-03-18 04:07:28,972 - INFO - Ingress_Exit 0PLHE8LC
2025-03-18 04:07:29,010 - INFO - Ingress_Exit FVQ1534K
2025-03-18 04:07:29,091 - INFO - Ingress_Enter 9BAWOGOF
2025-03-18 04:07:29,092 - INFO - Ingress_Exit DZ0L1SXL
2025-03-18 04:07:29,184 - INFO - Ingress_Enter OK4V7Y2U
2025-03-18 04:07:29,190 - INFO - Ingress_Enter I6735BJF
2025-03-18 04:07:29,191 - INFO - Ingress_Exit EG7A2C6W
2025-03-18 04:07:29,210 - INFO - Ingress_Enter QZ8NQK2U
2025-03-18 04:07:29,234 - INFO - Ingress_Exit C0QVF6WD
2025-03-18 04:07:29,290 - INFO - Ingress_Enter QY4KDW4R
2025-03-18 04:07:29,306 - INFO - Ingress_Enter UQ0RE5KH
2025-03-18 04:07:29,339 - INFO - Ingress_Enter Q56A2E6G
2025-03-18 04:07:29,454 - INFO - Ingress_Enter TUWSGORQ
2025-03-18 04:07:29,514 - INFO - Ingress_Exit I6DHZQ6C
2025-03-18 04:07:29,567 - INFO - Ingress_Exit S73Z80U3
2025-03-18 04:07:29,569 - INFO - Ingress_Exit BI1U9JVW
2025-03-18 04:07:29,707 - INFO - Ingress_Enter ZN00G36E
2025-03-18 04:07:29,792 - INFO - Ingress_Enter NZQNCT3P
2025-03-18 04:07:29,882 - INFO - Ingress_Enter UD84BMAC
2025-03-18 04:07:29,891 - INFO - Ingress_Enter WT08D50T
2025-03-18 04:07:29,927 - INFO - Ingress_Exit OK4V7Y2U
2025-03-18 04:07:29,956 - INFO - Ingress_Exit QY4KDW4R
2025-03-18 04:07:29,958 - INFO - Ingress_Exit I6735BJF
2025-03-18 04:07:30,012 - INFO - Ingress_Exit 9BAWOGOF
2025-03-18 04:07:30,078 - INFO - Ingress_Exit Q56A2E6G
2025-03-18 04:07:30,136 - INFO - Ingress_Exit QZ8NQK2U
2025-03-18 04:07:30,255 - INFO - Ingress_Enter 6YS10G5E
2025-03-18 04:07:30,320 - INFO - Ingress_Exit UQ0RE5KH
2025-03-18 04:07:30,322 - INFO - Ingress_Exit TUWSGORQ
2025-03-18 04:07:30,390 - INFO - Ingress_Enter EKANGMHG
2025-03-18 04:07:30,489 - INFO - Ingress_Exit ZN00G36E
2025-03-18 04:07:30,549 - INFO - Ingress_Enter OGQAEIV8
2025-03-18 04:07:30,607 - INFO - Ingress_Enter 2C55AIH6
2025-03-18 04:07:30,658 - INFO - Ingress_Exit UD84BMAC
2025-03-18 04:07:30,675 - INFO - Ingress_Enter GJ6NCSKT
2025-03-18 04:07:30,676 - INFO - Ingress_Exit NZQNCT3P
2025-03-18 04:07:30,760 - INFO - Ingress_Enter 0U4V3FUI
2025-03-18 04:07:30,795 - INFO - Ingress_Exit WT08D50T
2025-03-18 04:07:30,936 - INFO - Ingress_Enter QW6DDG2N
2025-03-18 04:07:30,947 - INFO - Ingress_Enter I4N9B0V7
2025-03-18 04:07:31,067 - INFO - Ingress_Exit 6YS10G5E
2025-03-18 04:07:31,213 - INFO - Ingress_Enter RSI7IYH8
2025-03-18 04:07:31,245 - INFO - Ingress_Enter M7D5SDPP
2025-03-18 04:07:31,299 - INFO - Ingress_Exit EKANGMHG
2025-03-18 04:07:31,316 - INFO - Ingress_Enter 414CKAF9
2025-03-18 04:07:31,402 - INFO - Ingress_Enter SRAFSSI7
2025-03-18 04:07:31,402 - INFO - Ingress_Exit OGQAEIV8
2025-03-18 04:07:31,444 - INFO - Ingress_Enter 2C8109LV
2025-03-18 04:07:31,548 - INFO - Ingress_Exit 0U4V3FUI
2025-03-18 04:07:31,553 - INFO - Ingress_Enter FRV3QP8O
2025-03-18 04:07:31,622 - INFO - Ingress_Enter ZK0K1953
2025-03-18 04:07:31,683 - INFO - Ingress_Enter V076Q2C5
2025-03-18 04:07:31,704 - INFO - Ingress_Exit 2C55AIH6
2025-03-18 04:07:31,706 - INFO - Ingress_Exit GJ6NCSKT
2025-03-18 04:07:31,947 - INFO - Ingress_Enter 0UBTQHUV
2025-03-18 04:07:31,957 - INFO - Ingress_Exit QW6DDG2N
2025-03-18 04:07:31,958 - INFO - Ingress_Exit I4N9B0V7
2025-03-18 04:07:32,071 - INFO - Ingress_Enter 26TIT9L2
2025-03-18 04:07:32,099 - INFO - Ingress_Enter BWDNYWGW
2025-03-18 04:07:32,144 - INFO - Ingress_Exit RSI7IYH8
2025-03-18 04:07:32,207 - INFO - Ingress_Exit 414CKAF9
2025-03-18 04:07:32,320 - INFO - Ingress_Exit SRAFSSI7
2025-03-18 04:07:32,322 - INFO - Ingress_Enter 9Z3GXKG2
2025-03-18 04:07:32,330 - INFO - Ingress_Exit M7D5SDPP
2025-03-18 04:07:32,436 - INFO - Ingress_Exit FRV3QP8O
2025-03-18 04:07:32,437 - INFO - Ingress_Exit 2C8109LV
2025-03-18 04:07:32,541 - INFO - Ingress_Enter OK37RBB6
2025-03-18 04:07:32,556 - INFO - Ingress_Exit ZK0K1953
2025-03-18 04:07:32,637 - INFO - Ingress_Exit V076Q2C5
2025-03-18 04:07:32,643 - INFO - Ingress_Enter BO00YF9V
2025-03-18 04:07:32,739 - INFO - Ingress_Enter GQZ8VWAF
2025-03-18 04:07:32,819 - INFO - Ingress_Enter O8LV4QFZ
2025-03-18 04:07:32,865 - INFO - Ingress_Exit 26TIT9L2
2025-03-18 04:07:32,872 - INFO - Ingress_Exit 0UBTQHUV
2025-03-18 04:07:32,900 - INFO - Ingress_Enter P400ZY38
2025-03-18 04:07:32,964 - INFO - Ingress_Enter 8NGAFI8R
2025-03-18 04:07:32,969 - INFO - Ingress_Enter VCYHCLZY
2025-03-18 04:07:33,079 - INFO - Ingress_Enter DVDGEXGA
2025-03-18 04:07:33,093 - INFO - Ingress_Exit BWDNYWGW
2025-03-18 04:07:33,184 - INFO - Ingress_Enter KZGTYYN9
2025-03-18 04:07:33,376 - INFO - Ingress_Enter 2TJVTDJF
2025-03-18 04:07:33,427 - INFO - Ingress_Exit 9Z3GXKG2
2025-03-18 04:07:33,480 - INFO - Ingress_Enter HKLCTB6H
2025-03-18 04:07:33,514 - INFO - Ingress_Exit BO00YF9V
2025-03-18 04:07:33,550 - INFO - Ingress_Exit GQZ8VWAF
2025-03-18 04:07:33,564 - INFO - Ingress_Exit OK37RBB6
2025-03-18 04:07:33,605 - INFO - Ingress_Enter 9UBY4ZUN
2025-03-18 04:07:33,776 - INFO - Ingress_Exit P400ZY38
2025-03-18 04:07:33,827 - INFO - Ingress_Exit O8LV4QFZ
2025-03-18 04:07:33,886 - INFO - Ingress_Exit 8NGAFI8R
2025-03-18 04:07:33,888 - INFO - Ingress_Exit VCYHCLZY
2025-03-18 04:07:34,033 - INFO - Ingress_Exit DVDGEXGA
2025-03-18 04:07:34,149 - INFO - Ingress_Exit KZGTYYN9
2025-03-18 04:07:34,205 - INFO - Ingress_Enter JNHEOR1S
2025-03-18 04:07:34,412 - INFO - Ingress_Enter A4SSMDYM
2025-03-18 04:07:34,432 - INFO - Ingress_Enter 5TL5MTCT
2025-03-18 04:07:34,488 - INFO - Ingress_Exit 2TJVTDJF
2025-03-18 04:07:34,559 - INFO - Ingress_Exit HKLCTB6H
2025-03-18 04:07:34,589 - INFO - Ingress_Exit 9UBY4ZUN
2025-03-18 04:07:34,778 - INFO - Ingress_Enter ZHIH0Q35
2025-03-18 04:07:34,812 - INFO - Ingress_Enter 12HIE6P4
2025-03-18 04:07:34,822 - INFO - Ingress_Enter DNZ0EU9C
2025-03-18 04:07:34,931 - INFO - Ingress_Enter DDJL5K3Y
2025-03-18 04:07:34,954 - INFO - Ingress_Exit JNHEOR1S
2025-03-18 04:07:35,050 - INFO - Ingress_Enter AMMHTC7H
2025-03-18 04:07:35,107 - INFO - Ingress_Enter O1IBZI5P
2025-03-18 04:07:35,181 - INFO - Ingress_Enter JS1XEZ8Q
2025-03-18 04:07:35,200 - INFO - Ingress_Exit ZHIH0Q35
2025-03-18 04:07:35,207 - INFO - Ingress_Exit 5TL5MTCT
2025-03-18 04:07:35,208 - INFO - Ingress_Enter TCUX9QVA
2025-03-18 04:07:35,301 - INFO - Ingress_Exit A4SSMDYM
2025-03-18 04:07:35,321 - INFO - Ingress_Exit DNZ0EU9C
2025-03-18 04:07:35,356 - INFO - Ingress_Enter 5FUHNVYQ
2025-03-18 04:07:35,364 - INFO - Ingress_Exit DDJL5K3Y
2025-03-18 04:07:35,427 - INFO - Ingress_Exit AMMHTC7H
2025-03-18 04:07:35,452 - INFO - Ingress_Enter AEC2UR09
2025-03-18 04:07:35,475 - INFO - Ingress_Enter 2V2Z2YOG
2025-03-18 04:07:35,617 - INFO - Ingress_Enter 5P03B9S8
2025-03-18 04:07:35,637 - INFO - Ingress_Enter IFOBOPY8
2025-03-18 04:07:35,651 - INFO - Ingress_Exit 12HIE6P4
2025-03-18 04:07:35,773 - INFO - Ingress_Exit O1IBZI5P
2025-03-18 04:07:35,822 - INFO - Ingress_Exit TCUX9QVA
2025-03-18 04:07:35,837 - INFO - Ingress_Exit JS1XEZ8Q
2025-03-18 04:07:35,914 - INFO - Ingress_Enter JCDF52FE
2025-03-18 04:07:36,147 - INFO - Ingress_Enter 0HDRL3F7
2025-03-18 04:07:36,237 - INFO - Ingress_Enter KFZ5ZQLP
2025-03-18 04:07:36,250 - INFO - Ingress_Exit 5FUHNVYQ
2025-03-18 04:07:36,296 - INFO - Ingress_Enter 0FGWHX0P
2025-03-18 04:07:36,319 - INFO - Ingress_Enter TYSJ6MOX
2025-03-18 04:07:36,407 - INFO - Ingress_Exit AEC2UR09
2025-03-18 04:07:36,413 - INFO - Ingress_Exit 2V2Z2YOG
2025-03-18 04:07:36,419 - INFO - Ingress_Exit IFOBOPY8
2025-03-18 04:07:36,440 - INFO - Ingress_Exit 5P03B9S8
2025-03-18 04:07:36,496 - INFO - Ingress_Enter I832UVQF
2025-03-18 04:07:36,501 - INFO - Ingress_Enter 59OS37N8
2025-03-18 04:07:36,591 - INFO - Ingress_Enter 8ZGLZ1LC
2025-03-18 04:07:36,659 - INFO - Ingress_Enter E3L48LER
2025-03-18 04:07:36,679 - INFO - Ingress_Exit JCDF52FE
2025-03-18 04:07:36,695 - INFO - Ingress_Enter C7N48SNC
2025-03-18 04:07:36,777 - INFO - Ingress_Enter 1GZO0KJW
2025-03-18 04:07:36,850 - INFO - Ingress_Enter RR9XX2RS
2025-03-18 04:07:36,900 - INFO - Ingress_Exit 0HDRL3F7
2025-03-18 04:07:36,903 - INFO - Ingress_Exit KFZ5ZQLP
2025-03-18 04:07:37,050 - INFO - Ingress_Exit TYSJ6MOX
2025-03-18 04:07:37,142 - INFO - Ingress_Enter RLEW01KD
2025-03-18 04:07:37,189 - INFO - Ingress_Enter GPVM5R2X
2025-03-18 04:07:37,214 - INFO - Ingress_Enter W6E9N7LL
2025-03-18 04:07:37,251 - INFO - Ingress_Exit 0FGWHX0P
2025-03-18 04:07:37,284 - INFO - Ingress_Enter S44YZPAV
2025-03-18 04:07:37,286 - INFO - Ingress_Exit E3L48LER
2025-03-18 04:07:37,286 - INFO - Ingress_Exit I832UVQF
2025-03-18 04:07:37,415 - INFO - Ingress_Exit 59OS37N8
2025-03-18 04:07:37,496 - INFO - Ingress_Enter YLFPMHO6
2025-03-18 04:07:37,548 - INFO - Ingress_Enter BCGADQED
2025-03-18 04:07:37,556 - INFO - Ingress_Enter 6LIS63OG
2025-03-18 04:07:37,619 - INFO - Ingress_Enter YILG4BOI
2025-03-18 04:07:37,656 - INFO - Ingress_Enter Y7KJYQQ8
2025-03-18 04:07:37,709 - INFO - Ingress_Exit 8ZGLZ1LC
2025-03-18 04:07:37,834 - INFO - Ingress_Exit C7N48SNC
2025-03-18 04:07:37,835 - INFO - Ingress_Exit 1GZO0KJW
2025-03-18 04:07:37,940 - INFO - Ingress_Exit RLEW01KD
2025-03-18 04:07:37,982 - INFO - Ingress_Exit RR9XX2RS
2025-03-18 04:07:38,077 - INFO - Ingress_Exit S44YZPAV
2025-03-18 04:07:38,192 - INFO - Ingress_Exit W6E9N7LL
2025-03-18 04:07:38,362 - INFO - Ingress_Exit GPVM5R2X
2025-03-18 04:07:38,577 - INFO - Ingress_Exit YLFPMHO6
2025-03-18 04:07:38,577 - INFO - Ingress_Exit Y7KJYQQ8
2025-03-18 04:07:38,579 - INFO - Ingress_Exit BCGADQED
2025-03-18 04:07:38,580 - INFO - Ingress_Exit YILG4BOI
2025-03-18 04:07:38,605 - INFO - Ingress_Exit 6LIS63OG
2025-03-18 04:07:39,723 - INFO - Ingress_Enter CVUE55IT
2025-03-18 04:07:39,765 - INFO - Ingress_Enter O7ZBR24I
2025-03-18 04:07:39,909 - INFO - Ingress_Enter YUKRPDKU
2025-03-18 04:07:39,937 - INFO - Ingress_Enter 9QMPB7Z4
2025-03-18 04:07:39,980 - INFO - Ingress_Enter 2KBAZELB
2025-03-18 04:07:40,281 - INFO - Ingress_Enter VECMCAUO
2025-03-18 04:07:40,285 - INFO - Ingress_Enter SV929PLW
2025-03-18 04:07:40,336 - INFO - Ingress_Enter IR5TYN9G
2025-03-18 04:07:40,420 - INFO - Ingress_Enter 525Z8NGU
2025-03-18 04:07:40,518 - INFO - Ingress_Exit O7ZBR24I
2025-03-18 04:07:40,596 - INFO - Ingress_Enter KRBR4CCK
2025-03-18 04:07:40,685 - INFO - Ingress_Enter 6SI5UCKD
2025-03-18 04:07:40,728 - INFO - Ingress_Enter Y8HI3XLC
2025-03-18 04:07:40,843 - INFO - Ingress_Exit YUKRPDKU
2025-03-18 04:07:40,854 - INFO - Ingress_Enter ED6QYLT0
2025-03-18 04:07:40,930 - INFO - Ingress_Exit CVUE55IT
2025-03-18 04:07:40,934 - INFO - Ingress_Exit VECMCAUO
2025-03-18 04:07:40,935 - INFO - Ingress_Exit SV929PLW
2025-03-18 04:07:40,986 - INFO - Ingress_Enter 45URSPH6
2025-03-18 04:07:40,989 - INFO - Ingress_Exit IR5TYN9G
2025-03-18 04:07:40,990 - INFO - Ingress_Enter 1ECDL43B
2025-03-18 04:07:41,027 - INFO - Ingress_Enter MPGFNFM4
2025-03-18 04:07:41,043 - INFO - Ingress_Exit 9QMPB7Z4
2025-03-18 04:07:41,056 - INFO - Ingress_Enter IP42CMDN
2025-03-18 04:07:41,149 - INFO - Ingress_Exit 2KBAZELB
2025-03-18 04:07:41,248 - INFO - Ingress_Exit 525Z8NGU
2025-03-18 04:07:41,254 - INFO - Ingress_Enter ZNVVL17Q
2025-03-18 04:07:41,263 - INFO - Ingress_Enter 8LEP9GM8
2025-03-18 04:07:41,407 - INFO - Ingress_Enter KC3JEAZR
2025-03-18 04:07:41,497 - INFO - Ingress_Exit 6SI5UCKD
2025-03-18 04:07:41,664 - INFO - Ingress_Enter K4A312JD
2025-03-18 04:07:41,700 - INFO - Ingress_Exit KRBR4CCK
2025-03-18 04:07:41,757 - INFO - Ingress_Exit MPGFNFM4
2025-03-18 04:07:41,837 - INFO - Ingress_Exit ED6QYLT0
2025-03-18 04:07:41,839 - INFO - Ingress_Exit 45URSPH6
2025-03-18 04:07:41,979 - INFO - Ingress_Exit Y8HI3XLC
2025-03-18 04:07:41,985 - INFO - Ingress_Exit 1ECDL43B
2025-03-18 04:07:42,035 - INFO - Ingress_Exit IP42CMDN
2025-03-18 04:07:42,254 - INFO - Ingress_Exit 8LEP9GM8
2025-03-18 04:07:42,407 - INFO - Ingress_Exit ZNVVL17Q
2025-03-18 04:07:42,492 - INFO - Ingress_Exit KC3JEAZR
2025-03-18 04:07:42,492 - INFO - Ingress_Exit K4A312JD
2025-03-18 04:07:42,796 - INFO - Ingress_Enter ZS0HSRCV
2025-03-18 04:07:42,906 - INFO - Ingress_Enter UQ9BNBK8
2025-03-18 04:07:42,992 - INFO - Ingress_Enter 7A2A7LZ9
2025-03-18 04:07:43,054 - INFO - Ingress_Enter SOOL91RC
2025-03-18 04:07:43,166 - INFO - Ingress_Enter J618TVUP
2025-03-18 04:07:43,192 - INFO - Ingress_Enter CS8XWJEI
2025-03-18 04:07:43,202 - INFO - Ingress_Enter J4WPRHNR
2025-03-18 04:07:43,481 - INFO - Ingress_Enter K42O8U2I
2025-03-18 04:07:43,513 - INFO - Ingress_Enter 1VOCUF67
2025-03-18 04:07:43,586 - INFO - Ingress_Enter MJ2Y37LR
2025-03-18 04:07:43,677 - INFO - Ingress_Enter 9OMG2GL1
2025-03-18 04:07:43,792 - INFO - Ingress_Enter OWC5ZCUP
2025-03-18 04:07:43,913 - INFO - Ingress_Enter J1PWYHTH
2025-03-18 04:07:43,914 - INFO - Ingress_Exit 7A2A7LZ9
2025-03-18 04:07:43,976 - INFO - Ingress_Exit ZS0HSRCV
2025-03-18 04:07:43,977 - INFO - Ingress_Exit UQ9BNBK8
2025-03-18 04:07:44,098 - INFO - Ingress_Exit SOOL91RC
2025-03-18 04:07:44,127 - INFO - Ingress_Exit J618TVUP
2025-03-18 04:07:44,385 - INFO - Ingress_Exit CS8XWJEI
2025-03-18 04:07:44,415 - INFO - Ingress_Exit 1VOCUF67
2025-03-18 04:07:44,440 - INFO - Ingress_Exit J4WPRHNR
2025-03-18 04:07:44,442 - INFO - Ingress_Exit K42O8U2I
2025-03-18 04:07:44,532 - INFO - Ingress_Exit MJ2Y37LR
2025-03-18 04:07:44,604 - INFO - Ingress_Exit 9OMG2GL1
2025-03-18 04:07:44,606 - INFO - Ingress_Exit OWC5ZCUP
2025-03-18 04:07:44,947 - INFO - Ingress_Enter KKDY9160
2025-03-18 04:07:44,973 - INFO - Ingress_Enter IOH7LR6D
2025-03-18 04:07:45,017 - INFO - Ingress_Enter B6PJP2Y3
2025-03-18 04:07:45,224 - INFO - Ingress_Enter ZBZO9VFC
2025-03-18 04:07:45,256 - INFO - Ingress_Enter H7BPQ6IE
2025-03-18 04:07:45,267 - INFO - Ingress_Enter KAEU6Q7K
2025-03-18 04:07:45,293 - INFO - Ingress_Enter ATFS9O5J
2025-03-18 04:07:45,314 - INFO - Ingress_Enter NYJOGOX3
2025-03-18 04:07:45,548 - INFO - Ingress_Exit J1PWYHTH
2025-03-18 04:07:45,682 - INFO - Ingress_Enter CIWH9MXU
2025-03-18 04:07:45,746 - INFO - Ingress_Exit KKDY9160
2025-03-18 04:07:45,764 - INFO - Ingress_Enter 298OB1JY
2025-03-18 04:07:45,785 - INFO - Ingress_Enter GC1SVBKG
2025-03-18 04:07:45,791 - INFO - Ingress_Enter 0P8EZL6K
2025-03-18 04:07:45,801 - INFO - Ingress_Enter 3MOGE4IF
2025-03-18 04:07:45,974 - INFO - Ingress_Enter 04P50JQU
2025-03-18 04:07:46,085 - INFO - Ingress_Exit IOH7LR6D
2025-03-18 04:07:46,127 - INFO - Ingress_Exit ZBZO9VFC
2025-03-18 04:07:46,240 - INFO - Ingress_Exit NYJOGOX3
2025-03-18 04:07:46,255 - INFO - Ingress_Exit H7BPQ6IE
2025-03-18 04:07:46,255 - INFO - Ingress_Exit KAEU6Q7K
2025-03-18 04:07:46,374 - INFO - Ingress_Exit B6PJP2Y3
2025-03-18 04:07:46,422 - INFO - Ingress_Exit ATFS9O5J
2025-03-18 04:07:46,478 - INFO - Ingress_Enter YYA32LOE
2025-03-18 04:07:46,510 - INFO - Ingress_Enter AP7JRZJZ
2025-03-18 04:07:46,670 - INFO - Ingress_Exit 298OB1JY
2025-03-18 04:07:46,797 - INFO - Ingress_Enter LWHUYRZ8
2025-03-18 04:07:46,846 - INFO - Ingress_Exit CIWH9MXU
2025-03-18 04:07:46,930 - INFO - Ingress_Exit GC1SVBKG
2025-03-18 04:07:46,931 - INFO - Ingress_Exit 0P8EZL6K
2025-03-18 04:07:47,084 - INFO - Ingress_Enter 0KE1CB5E
2025-03-18 04:07:47,166 - INFO - Ingress_Enter 69GM4SL3
2025-03-18 04:07:47,261 - INFO - Ingress_Enter PYGA0TSW
2025-03-18 04:07:47,696 - INFO - Ingress_Enter GIWKQK9T
2025-03-18 04:07:47,727 - INFO - Ingress_Enter D5SKVC4J
2025-03-18 04:07:47,808 - INFO - Ingress_Exit 3MOGE4IF
2025-03-18 04:07:47,929 - INFO - Ingress_Exit LWHUYRZ8
2025-03-18 04:07:47,942 - INFO - Ingress_Enter RF85YAZD
2025-03-18 04:07:47,984 - INFO - Ingress_Enter U94RM4DG
2025-03-18 04:07:48,066 - INFO - Ingress_Exit YYA32LOE
2025-03-18 04:07:48,096 - INFO - Ingress_Exit 0KE1CB5E
2025-03-18 04:07:48,130 - INFO - Ingress_Enter KA396XBE
2025-03-18 04:07:48,273 - INFO - Ingress_Enter 4XY7U8X5
2025-03-18 04:07:48,283 - INFO - Ingress_Exit 04P50JQU
2025-03-18 04:07:48,285 - INFO - Ingress_Exit AP7JRZJZ
2025-03-18 04:07:48,512 - INFO - Ingress_Enter HF4RKQE0
2025-03-18 04:07:48,534 - INFO - Ingress_Enter M6XR9NFQ
2025-03-18 04:07:48,584 - INFO - Ingress_Exit 69GM4SL3
2025-03-18 04:07:48,592 - INFO - Ingress_Exit PYGA0TSW
2025-03-18 04:07:48,615 - INFO - Ingress_Enter E4EH6VHY
2025-03-18 04:07:48,626 - INFO - Ingress_Enter UAWK078Q
2025-03-18 04:07:48,645 - INFO - Ingress_Enter EUN9FLE9
2025-03-18 04:07:48,699 - INFO - Ingress_Enter KARLFVI9
2025-03-18 04:07:48,745 - INFO - Ingress_Exit GIWKQK9T
2025-03-18 04:07:48,811 - INFO - Ingress_Enter 8XBG5NIA
2025-03-18 04:07:48,814 - INFO - Ingress_Exit D5SKVC4J
2025-03-18 04:07:48,846 - INFO - Ingress_Enter ZFD8QBLD
2025-03-18 04:07:48,896 - INFO - Ingress_Exit RF85YAZD
2025-03-18 04:07:49,019 - INFO - Ingress_Exit U94RM4DG
2025-03-18 04:07:49,133 - INFO - Ingress_Enter IG6QMK7R
2025-03-18 04:07:49,274 - INFO - Ingress_Exit KA396XBE
2025-03-18 04:07:49,354 - INFO - Ingress_Enter B47SKL9B
2025-03-18 04:07:49,362 - INFO - Ingress_Exit 4XY7U8X5
2025-03-18 04:07:49,428 - INFO - Ingress_Enter PHHG5J9Y
2025-03-18 04:07:49,435 - INFO - Ingress_Enter ECTFBVGI
2025-03-18 04:07:49,556 - INFO - Ingress_Exit HF4RKQE0
2025-03-18 04:07:49,577 - INFO - Ingress_Exit M6XR9NFQ
2025-03-18 04:07:49,605 - INFO - Ingress_Enter BIFIC2MY
2025-03-18 04:07:49,642 - INFO - Ingress_Enter DMRY7X1S
2025-03-18 04:07:49,659 - INFO - Ingress_Enter USFHCOMT
2025-03-18 04:07:49,711 - INFO - Ingress_Enter HDA4MF3N
2025-03-18 04:07:49,749 - INFO - Ingress_Exit E4EH6VHY
2025-03-18 04:07:49,799 - INFO - Ingress_Enter 6C1OA1AG
2025-03-18 04:07:49,845 - INFO - Ingress_Exit UAWK078Q
2025-03-18 04:07:50,021 - INFO - Ingress_Exit EUN9FLE9
2025-03-18 04:07:50,066 - INFO - Ingress_Exit 8XBG5NIA
2025-03-18 04:07:50,124 - INFO - Ingress_Exit KARLFVI9
2025-03-18 04:07:50,125 - INFO - Ingress_Exit ZFD8QBLD
2025-03-18 04:07:50,337 - INFO - Ingress_Exit IG6QMK7R
2025-03-18 04:07:50,412 - INFO - Ingress_Exit B47SKL9B
2025-03-18 04:07:50,456 - INFO - Ingress_Exit PHHG5J9Y
2025-03-18 04:07:50,672 - INFO - Ingress_Exit ECTFBVGI
2025-03-18 04:07:50,692 - INFO - Ingress_Exit BIFIC2MY
2025-03-18 04:07:51,079 - INFO - Ingress_Exit USFHCOMT
2025-03-18 04:07:51,236 - INFO - Ingress_Exit DMRY7X1S
2025-03-18 04:07:51,515 - INFO - Ingress_Exit HDA4MF3N
2025-03-18 04:07:51,843 - INFO - Ingress_Exit 6C1OA1AG
2025-03-18 04:07:52,565 - INFO - Ingress_Enter PLUXN32K
2025-03-18 04:07:52,575 - INFO - Ingress_Enter AYD77YLW
2025-03-18 04:07:52,621 - INFO - Ingress_Enter XRM4VHY7
2025-03-18 04:07:52,697 - INFO - Ingress_Enter M99BYC58
2025-03-18 04:07:52,704 - INFO - Ingress_Enter UX394FMN
2025-03-18 04:07:52,753 - INFO - Ingress_Enter 3U3WJZ4T
2025-03-18 04:07:52,759 - INFO - Ingress_Enter MN5JZ735
2025-03-18 04:07:52,764 - INFO - Ingress_Enter JKNXQQ7V
2025-03-18 04:07:52,833 - INFO - Ingress_Enter DIOEOAUR
2025-03-18 04:07:52,906 - INFO - Ingress_Enter UJSY7RIK
2025-03-18 04:07:52,912 - INFO - Ingress_Enter 17W9RIR8
2025-03-18 04:07:52,954 - INFO - Ingress_Enter J975QDWA
2025-03-18 04:07:53,033 - INFO - Ingress_Enter RWRMBBDQ
2025-03-18 04:07:53,468 - INFO - Ingress_Enter TCHCA19I
2025-03-18 04:07:53,531 - INFO - Ingress_Enter 0OZOGBIC
2025-03-18 04:07:53,532 - INFO - Ingress_Exit PLUXN32K
2025-03-18 04:07:53,533 - INFO - Ingress_Exit AYD77YLW
2025-03-18 04:07:53,642 - INFO - Ingress_Exit XRM4VHY7
2025-03-18 04:07:53,743 - INFO - Ingress_Enter XVY1YNBC
2025-03-18 04:07:53,777 - INFO - Ingress_Exit M99BYC58
2025-03-18 04:07:53,779 - INFO - Ingress_Exit UX394FMN
2025-03-18 04:07:53,780 - INFO - Ingress_Exit 3U3WJZ4T
2025-03-18 04:07:53,796 - INFO - Ingress_Exit MN5JZ735
2025-03-18 04:07:53,890 - INFO - Ingress_Exit DIOEOAUR
2025-03-18 04:07:53,891 - INFO - Ingress_Exit JKNXQQ7V
2025-03-18 04:07:53,933 - INFO - Ingress_Enter KIZJ1D60
2025-03-18 04:07:53,951 - INFO - Ingress_Enter P2PQ083K
2025-03-18 04:07:53,960 - INFO - Ingress_Enter 5XU1MW92
2025-03-18 04:07:53,986 - INFO - Ingress_Enter W6KUNLII
2025-03-18 04:07:54,067 - INFO - Ingress_Exit UJSY7RIK
2025-03-18 04:07:54,068 - INFO - Ingress_Exit 17W9RIR8
2025-03-18 04:07:54,135 - INFO - Ingress_Enter T55G6AN3
2025-03-18 04:07:54,214 - INFO - Ingress_Enter 39BQIEZA
2025-03-18 04:07:54,228 - INFO - Ingress_Exit J975QDWA
2025-03-18 04:07:54,289 - INFO - Ingress_Enter 1FFVIA5I
2025-03-18 04:07:54,337 - INFO - Ingress_Exit RWRMBBDQ
2025-03-18 04:07:54,342 - INFO - Ingress_Enter 55TIGT6G
2025-03-18 04:07:54,353 - INFO - Ingress_Exit TCHCA19I
2025-03-18 04:07:54,385 - INFO - Ingress_Enter F31BQPE1
2025-03-18 04:07:54,497 - INFO - Ingress_Exit 0OZOGBIC
2025-03-18 04:07:54,614 - INFO - Ingress_Exit XVY1YNBC
2025-03-18 04:07:54,727 - INFO - Ingress_Enter 0LW2XAXV
2025-03-18 04:07:54,776 - INFO - Ingress_Enter PH08TAZR
2025-03-18 04:07:54,835 - INFO - Ingress_Exit KIZJ1D60
2025-03-18 04:07:54,854 - INFO - Ingress_Enter 9FQ6KFLO
2025-03-18 04:07:54,863 - INFO - Ingress_Enter 48BIJ8BB
2025-03-18 04:07:54,865 - INFO - Ingress_Exit P2PQ083K
2025-03-18 04:07:54,966 - INFO - Ingress_Enter DY5P8FPF
2025-03-18 04:07:54,976 - INFO - Ingress_Exit W6KUNLII
2025-03-18 04:07:55,010 - INFO - Ingress_Exit 5XU1MW92
2025-03-18 04:07:55,060 - INFO - Ingress_Enter 43TJPG3Q
2025-03-18 04:07:55,160 - INFO - Ingress_Enter 5J3NP48X
2025-03-18 04:07:55,221 - INFO - Ingress_Enter KM30279T
2025-03-18 04:07:55,258 - INFO - Ingress_Exit T55G6AN3
2025-03-18 04:07:55,350 - INFO - Ingress_Exit 39BQIEZA
2025-03-18 04:07:55,351 - INFO - Ingress_Exit 1FFVIA5I
2025-03-18 04:07:55,389 - INFO - Ingress_Exit 55TIGT6G
2025-03-18 04:07:55,549 - INFO - Ingress_Enter 83B7TLQA
2025-03-18 04:07:55,565 - INFO - Ingress_Enter KWROPT9R
2025-03-18 04:07:55,581 - INFO - Ingress_Enter 3GAJ02A8
2025-03-18 04:07:55,599 - INFO - Ingress_Enter ZYRE4CX4
2025-03-18 04:07:55,634 - INFO - Ingress_Exit F31BQPE1
2025-03-18 04:07:55,729 - INFO - Ingress_Exit 0LW2XAXV
2025-03-18 04:07:55,730 - INFO - Ingress_Exit 9FQ6KFLO
2025-03-18 04:07:55,751 - INFO - Ingress_Enter 45AQZO20
2025-03-18 04:07:55,889 - INFO - Ingress_Enter GLV4U080
2025-03-18 04:07:55,926 - INFO - Ingress_Enter V3OD66LG
2025-03-18 04:07:55,940 - INFO - Ingress_Exit PH08TAZR
2025-03-18 04:07:56,005 - INFO - Ingress_Enter N47OPMR2
2025-03-18 04:07:56,010 - INFO - Ingress_Exit 48BIJ8BB
2025-03-18 04:07:56,030 - INFO - Ingress_Exit DY5P8FPF
2025-03-18 04:07:56,089 - INFO - Ingress_Enter RDRD4ZPW
2025-03-18 04:07:56,120 - INFO - Ingress_Exit 43TJPG3Q
2025-03-18 04:07:56,140 - INFO - Ingress_Enter WEYKJ1Q5
2025-03-18 04:07:56,178 - INFO - Ingress_Enter Q07IN9Y6
2025-03-18 04:07:56,184 - INFO - Ingress_Exit 5J3NP48X
2025-03-18 04:07:56,186 - INFO - Ingress_Enter VIECIZE8
2025-03-18 04:07:56,227 - INFO - Ingress_Enter OKG6EBFW
2025-03-18 04:07:56,253 - INFO - Ingress_Enter JO56BGFT
2025-03-18 04:07:56,333 - INFO - Ingress_Exit KM30279T
2025-03-18 04:07:56,389 - INFO - Ingress_Enter R95JG209
2025-03-18 04:07:56,517 - INFO - Ingress_Enter 50RMZ3EW
2025-03-18 04:07:56,525 - INFO - Ingress_Exit 83B7TLQA
2025-03-18 04:07:56,531 - INFO - Ingress_Enter QHI9VEIS
2025-03-18 04:07:56,830 - INFO - Ingress_Exit KWROPT9R
2025-03-18 04:07:56,833 - INFO - Ingress_Exit 3GAJ02A8
2025-03-18 04:07:56,883 - INFO - Ingress_Exit ZYRE4CX4
2025-03-18 04:07:57,016 - INFO - Ingress_Exit V3OD66LG
2025-03-18 04:07:57,017 - INFO - Ingress_Exit RDRD4ZPW
2025-03-18 04:07:57,168 - INFO - Ingress_Exit 45AQZO20
2025-03-18 04:07:57,193 - INFO - Ingress_Exit WEYKJ1Q5
2025-03-18 04:07:57,222 - INFO - Ingress_Exit N47OPMR2
2025-03-18 04:07:57,264 - INFO - Ingress_Exit GLV4U080
2025-03-18 04:07:57,285 - INFO - Ingress_Exit VIECIZE8
2025-03-18 04:07:57,430 - INFO - Ingress_Exit Q07IN9Y6
2025-03-18 04:07:57,500 - INFO - Ingress_Exit OKG6EBFW
2025-03-18 04:07:57,876 - INFO - Ingress_Exit 50RMZ3EW
2025-03-18 04:07:57,876 - INFO - Ingress_Exit R95JG209
2025-03-18 04:07:57,891 - INFO - Ingress_Exit JO56BGFT
2025-03-18 04:07:58,412 - INFO - Ingress_Enter R9THZRBO
2025-03-18 04:07:58,502 - INFO - Ingress_Enter WQNDHKJN
2025-03-18 04:07:58,622 - INFO - Ingress_Exit QHI9VEIS
2025-03-18 04:07:58,790 - INFO - Ingress_Enter 84MNZX8M
2025-03-18 04:07:58,826 - INFO - Ingress_Enter 6YM8EPB0
2025-03-18 04:07:58,885 - INFO - Ingress_Enter JVQ3BDW2
2025-03-18 04:07:59,068 - INFO - Ingress_Enter O6DQSVHI
2025-03-18 04:07:59,100 - INFO - Ingress_Enter U8CD5VHE
2025-03-18 04:07:59,138 - INFO - Ingress_Enter APLBOK34
2025-03-18 04:07:59,152 - INFO - Ingress_Enter NIPKX3VW
2025-03-18 04:07:59,159 - INFO - Ingress_Enter QFI8YF3K
2025-03-18 04:07:59,270 - INFO - Ingress_Enter HT1GR4LN
2025-03-18 04:07:59,355 - INFO - Ingress_Enter WYOQIHWR
2025-03-18 04:07:59,371 - INFO - Ingress_Enter APV775E7
2025-03-18 04:07:59,420 - INFO - Ingress_Enter UCUJ9EWN
2025-03-18 04:07:59,436 - INFO - Ingress_Exit R9THZRBO
2025-03-18 04:07:59,446 - INFO - Ingress_Exit WQNDHKJN
2025-03-18 04:07:59,689 - INFO - Ingress_Enter B9VR58NP
2025-03-18 04:07:59,742 - INFO - Ingress_Enter UJG5GSOB
2025-03-18 04:07:59,753 - INFO - Ingress_Exit 6YM8EPB0
2025-03-18 04:07:59,796 - INFO - Ingress_Exit JVQ3BDW2
2025-03-18 04:07:59,848 - INFO - Ingress_Exit 84MNZX8M
2025-03-18 04:07:59,941 - INFO - Ingress_Enter 3NX6JJIA
2025-03-18 04:07:59,978 - INFO - Ingress_Enter WE3UFFZL
2025-03-18 04:08:00,219 - INFO - Ingress_Exit O6DQSVHI
2025-03-18 04:08:00,220 - INFO - Ingress_Exit U8CD5VHE
2025-03-18 04:08:00,378 - INFO - Ingress_Exit APLBOK34
2025-03-18 04:08:00,434 - INFO - Ingress_Exit NIPKX3VW
2025-03-18 04:08:00,461 - INFO - Ingress_Exit QFI8YF3K
2025-03-18 04:08:00,552 - INFO - Ingress_Exit HT1GR4LN
2025-03-18 04:08:00,722 - INFO - Ingress_Enter EL38AIN6
2025-03-18 04:08:00,736 - INFO - Ingress_Exit WYOQIHWR
2025-03-18 04:08:00,786 - INFO - Ingress_Enter WI6LL87L
2025-03-18 04:08:00,802 - INFO - Ingress_Enter 8XHGCLAN
2025-03-18 04:08:00,818 - INFO - Ingress_Enter OIBZ15P2
2025-03-18 04:08:00,883 - INFO - Ingress_Enter 9KOX72HR
2025-03-18 04:08:00,893 - INFO - Ingress_Enter REQBS1U6
2025-03-18 04:08:01,095 - INFO - Ingress_Exit APV775E7
2025-03-18 04:08:01,116 - INFO - Ingress_Exit UCUJ9EWN
2025-03-18 04:08:01,158 - INFO - Ingress_Exit B9VR58NP
2025-03-18 04:08:01,200 - INFO - Ingress_Enter OR4JJ8VF
2025-03-18 04:08:01,226 - INFO - Ingress_Enter Z9XX3JKK
2025-03-18 04:08:01,240 - INFO - Ingress_Enter O9C0ASPC
2025-03-18 04:08:01,291 - INFO - Ingress_Enter SKSJ0QQA
2025-03-18 04:08:01,398 - INFO - Ingress_Enter CI50AZQX
2025-03-18 04:08:01,405 - INFO - Ingress_Enter UWGX6N5C
2025-03-18 04:08:01,530 - INFO - Ingress_Exit UJG5GSOB
2025-03-18 04:08:01,590 - INFO - Ingress_Exit 3NX6JJIA
2025-03-18 04:08:01,603 - INFO - Ingress_Enter UCW9WYII
2025-03-18 04:08:01,609 - INFO - Ingress_Enter EE77PIHG
2025-03-18 04:08:01,687 - INFO - Ingress_Exit WE3UFFZL
2025-03-18 04:08:01,691 - INFO - Ingress_Exit EL38AIN6
2025-03-18 04:08:01,947 - INFO - Ingress_Exit WI6LL87L
2025-03-18 04:08:02,014 - INFO - Ingress_Enter OT43F60S
2025-03-18 04:08:02,044 - INFO - Ingress_Enter 5YMVTZLB
2025-03-18 04:08:02,055 - INFO - Ingress_Exit 8XHGCLAN
2025-03-18 04:08:02,078 - INFO - Ingress_Enter 3RO8UX1Q
2025-03-18 04:08:02,124 - INFO - Ingress_Exit 9KOX72HR
2025-03-18 04:08:02,142 - INFO - Ingress_Enter 2X4ASOVB
2025-03-18 04:08:02,220 - INFO - Ingress_Enter 7LV2PJRJ
2025-03-18 04:08:02,236 - INFO - Ingress_Enter 7W614Y2W
2025-03-18 04:08:02,243 - INFO - Ingress_Exit OIBZ15P2
2025-03-18 04:08:02,274 - INFO - Ingress_Enter G3UA35LG
2025-03-18 04:08:02,418 - INFO - Ingress_Enter IVOWWSEO
2025-03-18 04:08:02,570 - INFO - Ingress_Enter 1UR9XYKI
2025-03-18 04:08:02,581 - INFO - Ingress_Exit REQBS1U6
2025-03-18 04:08:02,606 - INFO - Ingress_Exit OR4JJ8VF
2025-03-18 04:08:02,666 - INFO - Ingress_Exit Z9XX3JKK
2025-03-18 04:08:02,740 - INFO - Ingress_Exit O9C0ASPC
2025-03-18 04:08:02,869 - INFO - Ingress_Exit SKSJ0QQA
2025-03-18 04:08:02,889 - INFO - Ingress_Exit CI50AZQX
2025-03-18 04:08:03,076 - INFO - Ingress_Exit UWGX6N5C
2025-03-18 04:08:03,114 - INFO - Ingress_Exit OT43F60S
2025-03-18 04:08:03,141 - INFO - Ingress_Exit EE77PIHG
2025-03-18 04:08:03,337 - INFO - Ingress_Exit UCW9WYII
2025-03-18 04:08:03,340 - INFO - Ingress_Exit 5YMVTZLB
2025-03-18 04:08:03,495 - INFO - Ingress_Exit 3RO8UX1Q
2025-03-18 04:08:03,601 - INFO - Ingress_Exit 2X4ASOVB
2025-03-18 04:08:03,617 - INFO - Ingress_Exit 7W614Y2W
2025-03-18 04:08:03,823 - INFO - Ingress_Exit 7LV2PJRJ
2025-03-18 04:08:04,471 - INFO - Ingress_Exit G3UA35LG
2025-03-18 04:08:04,944 - INFO - Ingress_Exit IVOWWSEO
2025-03-18 04:08:05,424 - INFO - Ingress_Enter MATIYJ53
2025-03-18 04:08:05,461 - INFO - Ingress_Enter MFCXXF56
2025-03-18 04:08:05,471 - INFO - Ingress_Enter IVT0NSOW
2025-03-18 04:08:05,525 - INFO - Ingress_Enter IDBJ9MRL
2025-03-18 04:08:05,573 - INFO - Ingress_Enter 1ILEW169
2025-03-18 04:08:05,583 - INFO - Ingress_Enter YJEC6HZ4
2025-03-18 04:08:05,612 - INFO - Ingress_Enter 99VOP3CU
2025-03-18 04:08:05,818 - INFO - Ingress_Enter 4TYSQIF3
2025-03-18 04:08:05,832 - INFO - Ingress_Enter 3VJ5Y8NZ
2025-03-18 04:08:05,890 - INFO - Ingress_Enter Q3GB33Q8
2025-03-18 04:08:05,907 - INFO - Ingress_Enter B8XBP3FR
2025-03-18 04:08:05,971 - INFO - Ingress_Enter 7K4HEIVB
2025-03-18 04:08:06,100 - INFO - Ingress_Enter LY56CJV1
2025-03-18 04:08:06,147 - INFO - Ingress_Enter UBR6B2JM
2025-03-18 04:08:06,152 - INFO - Ingress_Enter W1OU69U3
2025-03-18 04:08:06,186 - INFO - Ingress_Enter U4PZFHQM
2025-03-18 04:08:06,439 - INFO - Ingress_Enter J1OJCZDK
2025-03-18 04:08:06,463 - INFO - Ingress_Exit MATIYJ53
2025-03-18 04:08:06,465 - INFO - Ingress_Exit MFCXXF56
2025-03-18 04:08:06,548 - INFO - Ingress_Exit IVT0NSOW
2025-03-18 04:08:06,553 - INFO - Ingress_Exit 1UR9XYKI
2025-03-18 04:08:06,708 - INFO - Ingress_Exit IDBJ9MRL
2025-03-18 04:08:06,710 - INFO - Ingress_Exit 4TYSQIF3
2025-03-18 04:08:06,777 - INFO - Ingress_Exit 1ILEW169
2025-03-18 04:08:06,778 - INFO - Ingress_Exit 99VOP3CU
2025-03-18 04:08:06,795 - INFO - Ingress_Enter MKRWY7E9
2025-03-18 04:08:06,890 - INFO - Ingress_Exit YJEC6HZ4
2025-03-18 04:08:07,169 - INFO - Ingress_Enter J3H4R0GY
2025-03-18 04:08:07,186 - INFO - Ingress_Enter 10YAVJL1
2025-03-18 04:08:07,187 - INFO - Ingress_Exit 3VJ5Y8NZ
2025-03-18 04:08:07,274 - INFO - Ingress_Enter CCJTHZ94
2025-03-18 04:08:07,322 - INFO - Ingress_Enter M0901361
2025-03-18 04:08:07,377 - INFO - Ingress_Enter 2I356QW3
2025-03-18 04:08:07,474 - INFO - Ingress_Exit B8XBP3FR
2025-03-18 04:08:07,571 - INFO - Ingress_Exit Q3GB33Q8
2025-03-18 04:08:07,736 - INFO - Ingress_Exit 7K4HEIVB
2025-03-18 04:08:07,866 - INFO - Ingress_Enter 0IZOXUE8
2025-03-18 04:08:07,898 - INFO - Ingress_Enter 79K9FUA3
2025-03-18 04:08:07,939 - INFO - Ingress_Exit LY56CJV1
2025-03-18 04:08:08,004 - INFO - Ingress_Enter 6VE4VD3V
2025-03-18 04:08:08,010 - INFO - Ingress_Enter 6RBVUTSU
2025-03-18 04:08:08,132 - INFO - Ingress_Enter K3Z4KKFB
2025-03-18 04:08:08,174 - INFO - Ingress_Enter CSM1JTTG
2025-03-18 04:08:08,341 - INFO - Ingress_Enter EJLITPG1
2025-03-18 04:08:08,379 - INFO - Ingress_Enter GJ1SS952
2025-03-18 04:08:08,409 - INFO - Ingress_Exit W1OU69U3
2025-03-18 04:08:08,421 - INFO - Ingress_Exit U4PZFHQM
2025-03-18 04:08:08,492 - INFO - Ingress_Exit UBR6B2JM
2025-03-18 04:08:08,640 - INFO - Ingress_Exit J1OJCZDK
2025-03-18 04:08:08,678 - INFO - Ingress_Enter 11NNCGEE
2025-03-18 04:08:08,751 - INFO - Ingress_Enter YDMS7GCH
2025-03-18 04:08:08,803 - INFO - Ingress_Exit MKRWY7E9
2025-03-18 04:08:08,815 - INFO - Ingress_Enter 5OUHB8EJ
2025-03-18 04:08:08,874 - INFO - Ingress_Enter MH7E6PTT
2025-03-18 04:08:08,905 - INFO - Ingress_Enter XSSYMSJ6
2025-03-18 04:08:08,953 - INFO - Ingress_Exit J3H4R0GY
2025-03-18 04:08:09,066 - INFO - Ingress_Enter MNBXAEDQ
2025-03-18 04:08:09,080 - INFO - Ingress_Exit 10YAVJL1
2025-03-18 04:08:09,170 - INFO - Ingress_Enter CKLN1KKV
2025-03-18 04:08:09,177 - INFO - Ingress_Exit CCJTHZ94
2025-03-18 04:08:09,179 - INFO - Ingress_Exit M0901361
2025-03-18 04:08:09,237 - INFO - Ingress_Enter EDYUTGLQ
2025-03-18 04:08:09,288 - INFO - Ingress_Enter K5PTJ2ZG
2025-03-18 04:08:09,335 - INFO - Ingress_Enter 108IPY0Z
2025-03-18 04:08:09,367 - INFO - Ingress_Enter ENQCK2FY
2025-03-18 04:08:09,411 - INFO - Ingress_Exit 2I356QW3
2025-03-18 04:08:09,412 - INFO - Ingress_Exit 0IZOXUE8
2025-03-18 04:08:09,467 - INFO - Ingress_Enter 2YAYCT0I
2025-03-18 04:08:09,627 - INFO - Ingress_Enter A5WEPD8Z
2025-03-18 04:08:09,783 - INFO - Ingress_Exit 79K9FUA3
2025-03-18 04:08:09,862 - INFO - Ingress_Exit 6VE4VD3V
2025-03-18 04:08:10,047 - INFO - Ingress_Enter 7HHOUN7V
2025-03-18 04:08:10,276 - INFO - Ingress_Enter RXWU8BHS
2025-03-18 04:08:10,355 - INFO - Ingress_Exit 6RBVUTSU
2025-03-18 04:08:10,926 - INFO - Ingress_Exit K3Z4KKFB
2025-03-18 04:08:10,929 - INFO - Ingress_Exit CSM1JTTG
2025-03-18 04:08:10,929 - INFO - Ingress_Exit EJLITPG1
2025-03-18 04:08:11,187 - INFO - Ingress_Exit GJ1SS952
2025-03-18 04:08:11,395 - INFO - Ingress_Enter MMUJ8IIF
2025-03-18 04:08:11,416 - INFO - Ingress_Enter H4DE60T1
2025-03-18 04:08:11,554 - INFO - Ingress_Enter 1FVRG39M
2025-03-18 04:08:11,651 - INFO - Ingress_Enter 7L4VAP5M
2025-03-18 04:08:11,860 - INFO - Ingress_Enter UU57ENI9
2025-03-18 04:08:12,732 - INFO - Ingress_Exit 11NNCGEE
2025-03-18 04:08:12,763 - INFO - Ingress_Exit 5OUHB8EJ
2025-03-18 04:08:12,820 - INFO - Ingress_Exit XSSYMSJ6
2025-03-18 04:08:12,881 - INFO - Ingress_Exit YDMS7GCH
2025-03-18 04:08:13,000 - INFO - Ingress_Exit MNBXAEDQ
2025-03-18 04:08:13,039 - INFO - Ingress_Exit MH7E6PTT
2025-03-18 04:08:13,075 - INFO - Ingress_Exit CKLN1KKV
2025-03-18 04:08:13,116 - INFO - Ingress_Exit EDYUTGLQ
2025-03-18 04:08:13,380 - INFO - Ingress_Exit K5PTJ2ZG
2025-03-18 04:08:13,380 - INFO - Ingress_Exit ENQCK2FY
2025-03-18 04:08:13,389 - INFO - Ingress_Exit 108IPY0Z
2025-03-18 04:08:13,459 - INFO - Ingress_Exit 7HHOUN7V
2025-03-18 04:08:13,604 - INFO - Ingress_Exit 2YAYCT0I
2025-03-18 04:08:13,605 - INFO - Ingress_Exit A5WEPD8Z
2025-03-18 04:08:13,723 - INFO - Ingress_Exit RXWU8BHS
2025-03-18 04:08:14,039 - INFO - Ingress_Exit MMUJ8IIF
2025-03-18 04:08:14,093 - INFO - Ingress_Exit H4DE60T1
2025-03-18 04:08:14,268 - INFO - Ingress_Exit 1FVRG39M
2025-03-18 04:08:14,806 - INFO - Ingress_Enter BDWLP02Y
2025-03-18 04:08:14,816 - INFO - Ingress_Enter NI3JHWGH
2025-03-18 04:08:14,866 - INFO - Ingress_Exit 7L4VAP5M
2025-03-18 04:08:14,867 - INFO - Ingress_Exit UU57ENI9
2025-03-18 04:08:14,904 - INFO - Ingress_Enter 2UX5AFXX
2025-03-18 04:08:14,948 - INFO - Ingress_Enter TW9POI6L
2025-03-18 04:08:15,018 - INFO - Ingress_Enter 14UHPW5A
2025-03-18 04:08:15,039 - INFO - Ingress_Enter RU5MQR6K
2025-03-18 04:08:15,049 - INFO - Ingress_Enter 7VP4PK0N
2025-03-18 04:08:15,207 - INFO - Ingress_Enter 42DGNFAS
2025-03-18 04:08:15,228 - INFO - Ingress_Enter 1WFTPJN5
2025-03-18 04:08:15,286 - INFO - Ingress_Enter YA3MPO4U
2025-03-18 04:08:15,504 - INFO - Ingress_Enter ARP6BJJZ
2025-03-18 04:08:15,675 - INFO - Ingress_Enter NBVRUWKP
2025-03-18 04:08:15,720 - INFO - Ingress_Enter CXC497QM
2025-03-18 04:08:15,733 - INFO - Ingress_Exit NI3JHWGH
2025-03-18 04:08:15,737 - INFO - Ingress_Enter 4OTH30G8
2025-03-18 04:08:15,771 - INFO - Ingress_Enter KG513R7T
2025-03-18 04:08:15,772 - INFO - Ingress_Exit 2UX5AFXX
2025-03-18 04:08:15,866 - INFO - Ingress_Enter F0KJ9E6M
2025-03-18 04:08:15,889 - INFO - Ingress_Exit BDWLP02Y
2025-03-18 04:08:15,908 - INFO - Ingress_Enter ZUM33D5J
2025-03-18 04:08:15,976 - INFO - Ingress_Enter HCH3JTPO
2025-03-18 04:08:16,013 - INFO - Ingress_Enter K0XESALY
2025-03-18 04:08:16,120 - INFO - Ingress_Exit TW9POI6L
2025-03-18 04:08:16,159 - INFO - Ingress_Enter DS2KDPAB
2025-03-18 04:08:16,271 - INFO - Ingress_Exit 7VP4PK0N
2025-03-18 04:08:16,300 - INFO - Ingress_Enter Q786EIU6
2025-03-18 04:08:16,307 - INFO - Ingress_Exit 42DGNFAS
2025-03-18 04:08:16,346 - INFO - Ingress_Exit RU5MQR6K
2025-03-18 04:08:16,348 - INFO - Ingress_Enter GJURGLON
2025-03-18 04:08:16,348 - INFO - Ingress_Exit 1WFTPJN5
2025-03-18 04:08:16,421 - INFO - Ingress_Exit 14UHPW5A
2025-03-18 04:08:16,426 - INFO - Ingress_Enter A2X00Q7V
2025-03-18 04:08:16,440 - INFO - Ingress_Exit YA3MPO4U
2025-03-18 04:08:16,457 - INFO - Ingress_Enter 76PMS80M
2025-03-18 04:08:16,490 - INFO - Ingress_Enter 230JS5FX
2025-03-18 04:08:16,559 - INFO - Ingress_Enter AEVN4TKF
2025-03-18 04:08:16,685 - INFO - Ingress_Exit NBVRUWKP
2025-03-18 04:08:16,686 - INFO - Ingress_Enter BS9TKC1Z
2025-03-18 04:08:16,694 - INFO - Ingress_Exit ARP6BJJZ
2025-03-18 04:08:16,783 - INFO - Ingress_Enter 9PG3GU83
2025-03-18 04:08:16,869 - INFO - Ingress_Exit 4OTH30G8
2025-03-18 04:08:16,937 - INFO - Ingress_Exit KG513R7T
2025-03-18 04:08:16,940 - INFO - Ingress_Enter J009P5L4
2025-03-18 04:08:16,962 - INFO - Ingress_Exit CXC497QM
2025-03-18 04:08:17,000 - INFO - Ingress_Exit F0KJ9E6M
2025-03-18 04:08:17,011 - INFO - Ingress_Enter DZUFWXFS
2025-03-18 04:08:17,111 - INFO - Ingress_Exit ZUM33D5J
2025-03-18 04:08:17,188 - INFO - Ingress_Enter 5HHZH1AB
2025-03-18 04:08:17,265 - INFO - Ingress_Enter KVBKARUR
2025-03-18 04:08:17,328 - INFO - Ingress_Enter WK1DT69O
2025-03-18 04:08:17,359 - INFO - Ingress_Exit HCH3JTPO
2025-03-18 04:08:17,360 - INFO - Ingress_Enter 7FJ9FFU0
2025-03-18 04:08:17,448 - INFO - Ingress_Enter AIQB74EL
2025-03-18 04:08:17,510 - INFO - Ingress_Exit DS2KDPAB
2025-03-18 04:08:17,611 - INFO - Ingress_Exit K0XESALY
2025-03-18 04:08:17,632 - INFO - Ingress_Enter Z7FNLS4R
2025-03-18 04:08:17,664 - INFO - Ingress_Enter 05L8YXDE
2025-03-18 04:08:17,666 - INFO - Ingress_Exit Q786EIU6
2025-03-18 04:08:17,773 - INFO - Ingress_Enter SESKWFNV
2025-03-18 04:08:17,793 - INFO - Ingress_Exit A2X00Q7V
2025-03-18 04:08:17,827 - INFO - Ingress_Exit GJURGLON
2025-03-18 04:08:17,887 - INFO - Ingress_Exit 76PMS80M
2025-03-18 04:08:17,891 - INFO - Ingress_Enter WGF8GGSW
2025-03-18 04:08:17,920 - INFO - Ingress_Enter JZCK4XW0
2025-03-18 04:08:18,012 - INFO - Ingress_Enter O6F7PNK5
2025-03-18 04:08:18,155 - INFO - Ingress_Exit BS9TKC1Z
2025-03-18 04:08:18,186 - INFO - Ingress_Exit 230JS5FX
2025-03-18 04:08:18,187 - INFO - Ingress_Exit AEVN4TKF
2025-03-18 04:08:18,248 - INFO - Ingress_Enter 6JJV9J5H
2025-03-18 04:08:18,255 - INFO - Ingress_Enter QAXC14KR
2025-03-18 04:08:18,371 - INFO - Ingress_Exit 9PG3GU83
2025-03-18 04:08:18,390 - INFO - Ingress_Exit J009P5L4
2025-03-18 04:08:18,630 - INFO - Ingress_Enter CWRA4ENT
2025-03-18 04:08:18,646 - INFO - Ingress_Exit DZUFWXFS
2025-03-18 04:08:18,662 - INFO - Ingress_Enter L3QI6EXI
2025-03-18 04:08:18,744 - INFO - Ingress_Enter 0QHYUZIQ
2025-03-18 04:08:18,755 - INFO - Ingress_Enter B2FKUOK7
2025-03-18 04:08:18,771 - INFO - Ingress_Enter 4LPECZ3U
2025-03-18 04:08:18,867 - INFO - Ingress_Enter 6JY6TXIY
2025-03-18 04:08:18,881 - INFO - Ingress_Exit 5HHZH1AB
2025-03-18 04:08:18,900 - INFO - Ingress_Exit WK1DT69O
2025-03-18 04:08:18,977 - INFO - Ingress_Exit KVBKARUR
2025-03-18 04:08:19,062 - INFO - Ingress_Exit AIQB74EL
2025-03-18 04:08:19,086 - INFO - Ingress_Exit 05L8YXDE
2025-03-18 04:08:19,103 - INFO - Ingress_Enter C35S3D4A
2025-03-18 04:08:19,136 - INFO - Ingress_Enter WNQ3JPRF
2025-03-18 04:08:19,150 - INFO - Ingress_Exit 7FJ9FFU0
2025-03-18 04:08:19,151 - INFO - Ingress_Exit Z7FNLS4R
2025-03-18 04:08:19,245 - INFO - Ingress_Enter Q3SKU22T
2025-03-18 04:08:19,269 - INFO - Ingress_Exit SESKWFNV
2025-03-18 04:08:19,337 - INFO - Ingress_Enter 0VWZ9RLY
2025-03-18 04:08:19,357 - INFO - Ingress_Enter XPT91BZL
2025-03-18 04:08:19,453 - INFO - Ingress_Enter MM4CRZEA
2025-03-18 04:08:19,648 - INFO - Ingress_Enter 6JG9ILT6
2025-03-18 04:08:19,679 - INFO - Ingress_Enter 5AF4ZSQW
2025-03-18 04:08:19,699 - INFO - Ingress_Exit WGF8GGSW
2025-03-18 04:08:19,744 - INFO - Ingress_Exit O6F7PNK5
2025-03-18 04:08:19,771 - INFO - Ingress_Exit JZCK4XW0
2025-03-18 04:08:20,046 - INFO - Ingress_Exit L3QI6EXI
2025-03-18 04:08:20,060 - INFO - Ingress_Exit CWRA4ENT
2025-03-18 04:08:20,071 - INFO - Ingress_Exit 0QHYUZIQ
2025-03-18 04:08:20,182 - INFO - Ingress_Exit 6JJV9J5H
2025-03-18 04:08:20,226 - INFO - Ingress_Enter 1IKZM0KY
2025-03-18 04:08:20,247 - INFO - Ingress_Enter KMKHDIHY
2025-03-18 04:08:20,316 - INFO - Ingress_Enter PMIT6W4W
2025-03-18 04:08:20,367 - INFO - Ingress_Enter 0HD6OIHB
2025-03-18 04:08:20,393 - INFO - Ingress_Exit B2FKUOK7
2025-03-18 04:08:20,415 - INFO - Ingress_Exit 4LPECZ3U
2025-03-18 04:08:20,495 - INFO - Ingress_Exit QAXC14KR
2025-03-18 04:08:20,532 - INFO - Ingress_Enter VFD8Z372
2025-03-18 04:08:20,626 - INFO - Ingress_Exit 6JY6TXIY
2025-03-18 04:08:20,627 - INFO - Ingress_Exit C35S3D4A
2025-03-18 04:08:20,646 - INFO - Ingress_Enter FSEGPZWY
2025-03-18 04:08:20,659 - INFO - Ingress_Enter POZ9HB2D
2025-03-18 04:08:20,703 - INFO - Ingress_Enter KJX739AX
2025-03-18 04:08:20,778 - INFO - Ingress_Enter OGZFWW0F
2025-03-18 04:08:20,865 - INFO - Ingress_Enter FPFDAWO6
2025-03-18 04:08:20,974 - INFO - Ingress_Exit WNQ3JPRF
2025-03-18 04:08:21,016 - INFO - Ingress_Exit Q3SKU22T
2025-03-18 04:08:21,149 - INFO - Ingress_Exit XPT91BZL
2025-03-18 04:08:21,151 - INFO - Ingress_Enter SOD98S4S
2025-03-18 04:08:21,229 - INFO - Ingress_Enter X6DTZYSO
2025-03-18 04:08:21,266 - INFO - Ingress_Exit 0VWZ9RLY
2025-03-18 04:08:21,288 - INFO - Ingress_Enter 23SEM0RI
2025-03-18 04:08:21,295 - INFO - Ingress_Exit MM4CRZEA
2025-03-18 04:08:21,432 - INFO - Ingress_Enter QEZRMSXF
2025-03-18 04:08:21,455 - INFO - Ingress_Exit 6JG9ILT6
2025-03-18 04:08:21,456 - INFO - Ingress_Exit 5AF4ZSQW
2025-03-18 04:08:21,465 - INFO - Ingress_Enter ZUNOTOJE
2025-03-18 04:08:21,659 - INFO - Ingress_Exit 1IKZM0KY
2025-03-18 04:08:21,808 - INFO - Ingress_Enter LLWR3RVR
2025-03-18 04:08:21,847 - INFO - Ingress_Enter 5STOHAX0
2025-03-18 04:08:22,054 - INFO - Ingress_Enter LHNO7UQ3
2025-03-18 04:08:22,061 - INFO - Ingress_Exit KMKHDIHY
2025-03-18 04:08:22,150 - INFO - Ingress_Enter 815PEMTM
2025-03-18 04:08:22,196 - INFO - Ingress_Enter CUBYKKFY
2025-03-18 04:08:22,329 - INFO - Ingress_Enter AR3S0OBU
2025-03-18 04:08:22,399 - INFO - Ingress_Enter 16CJ010N
2025-03-18 04:08:22,559 - INFO - Ingress_Enter 0GPGV2A6
2025-03-18 04:08:22,645 - INFO - Ingress_Enter 79DIV4PA
2025-03-18 04:08:22,714 - INFO - Ingress_Enter K07IH2S9
2025-03-18 04:08:22,847 - INFO - Ingress_Enter R87Y64QN
2025-03-18 04:08:23,493 - INFO - Ingress_Exit FSEGPZWY
2025-03-18 04:08:23,580 - INFO - Ingress_Exit KJX739AX
2025-03-18 04:08:23,587 - INFO - Ingress_Exit SOD98S4S
2025-03-18 04:08:23,601 - INFO - Ingress_Exit 0HD6OIHB
2025-03-18 04:08:23,620 - INFO - Ingress_Exit LLWR3RVR
2025-03-18 04:08:23,646 - INFO - Ingress_Exit PMIT6W4W
2025-03-18 04:08:23,701 - INFO - Ingress_Exit VFD8Z372
2025-03-18 04:08:23,717 - INFO - Ingress_Exit OGZFWW0F
2025-03-18 04:08:23,717 - INFO - Ingress_Exit 23SEM0RI
2025-03-18 04:08:23,719 - INFO - Ingress_Exit ZUNOTOJE
2025-03-18 04:08:23,755 - INFO - Ingress_Exit X6DTZYSO
2025-03-18 04:08:23,793 - INFO - Ingress_Exit 5STOHAX0
2025-03-18 04:08:23,795 - INFO - Ingress_Exit 815PEMTM
2025-03-18 04:08:23,840 - INFO - Ingress_Exit POZ9HB2D
2025-03-18 04:08:23,843 - INFO - Ingress_Exit FPFDAWO6
2025-03-18 04:08:23,845 - INFO - Ingress_Exit CUBYKKFY
2025-03-18 04:08:23,850 - INFO - Ingress_Exit QEZRMSXF
2025-03-18 04:08:23,854 - INFO - Ingress_Exit LHNO7UQ3
2025-03-18 04:08:24,000 - INFO - Ingress_Exit AR3S0OBU
2025-03-18 04:08:24,552 - INFO - Ingress_Enter 0KJ8DYQ6
2025-03-18 04:08:24,602 - INFO - Ingress_Enter GID8MALU
2025-03-18 04:08:24,623 - INFO - Ingress_Enter 7LAY2LJH
2025-03-18 04:08:24,658 - INFO - Ingress_Enter IMMZE87Z
2025-03-18 04:08:24,701 - INFO - Ingress_Enter U0GS8EMB
2025-03-18 04:08:24,708 - INFO - Ingress_Enter 7WMZAY6P
2025-03-18 04:08:24,723 - INFO - Ingress_Enter A3Y5QU90
2025-03-18 04:08:24,774 - INFO - Ingress_Enter ML5RIJUJ
2025-03-18 04:08:24,795 - INFO - Ingress_Enter A34IM79V
2025-03-18 04:08:24,806 - INFO - Ingress_Enter HOXH3KUR
2025-03-18 04:08:24,808 - INFO - Ingress_Exit 16CJ010N
2025-03-18 04:08:24,833 - INFO - Ingress_Enter KZA54JNQ
2025-03-18 04:08:24,902 - INFO - Ingress_Enter YC5DGXK4
2025-03-18 04:08:25,057 - INFO - Ingress_Enter ZYISEJV3
2025-03-18 04:08:25,204 - INFO - Ingress_Enter LHUCZTKA
2025-03-18 04:08:25,395 - INFO - Ingress_Enter 6ALQ7QY7
2025-03-18 04:08:25,553 - INFO - Ingress_Enter T5L5Y2XS
2025-03-18 04:08:25,685 - INFO - Ingress_Enter IQAG613M
2025-03-18 04:08:25,695 - INFO - Ingress_Enter 6VEBC0JG
2025-03-18 04:08:25,845 - INFO - Ingress_Exit 0KJ8DYQ6
2025-03-18 04:08:25,885 - INFO - Ingress_Exit R87Y64QN
2025-03-18 04:08:25,980 - INFO - Ingress_Exit 7LAY2LJH
2025-03-18 04:08:25,981 - INFO - Ingress_Exit IMMZE87Z
2025-03-18 04:08:25,983 - INFO - Ingress_Exit U0GS8EMB
2025-03-18 04:08:25,985 - INFO - Ingress_Exit 0GPGV2A6
2025-03-18 04:08:25,987 - INFO - Ingress_Enter YICLWLUH
2025-03-18 04:08:25,989 - INFO - Ingress_Exit K07IH2S9
2025-03-18 04:08:26,089 - INFO - Ingress_Exit GID8MALU
2025-03-18 04:08:26,091 - INFO - Ingress_Exit 79DIV4PA
2025-03-18 04:08:26,118 - INFO - Ingress_Enter M8HIFNE4
2025-03-18 04:08:26,163 - INFO - Ingress_Enter LH65VYAY
2025-03-18 04:08:26,207 - INFO - Ingress_Enter JZOBCGJG
2025-03-18 04:08:26,244 - INFO - Ingress_Enter BZNX1362
2025-03-18 04:08:26,251 - INFO - Ingress_Enter IPFFHNU1
2025-03-18 04:08:26,588 - INFO - Ingress_Exit 7WMZAY6P
2025-03-18 04:08:26,688 - INFO - Ingress_Enter MTP3RBXO
2025-03-18 04:08:26,695 - INFO - Ingress_Exit ML5RIJUJ
2025-03-18 04:08:26,698 - INFO - Ingress_Exit A3Y5QU90
2025-03-18 04:08:26,701 - INFO - Ingress_Exit KZA54JNQ
2025-03-18 04:08:26,732 - INFO - Ingress_Exit A34IM79V
2025-03-18 04:08:26,735 - INFO - Ingress_Exit HOXH3KUR
2025-03-18 04:08:26,838 - INFO - Ingress_Exit LHUCZTKA
2025-03-18 04:08:26,848 - INFO - Ingress_Enter 6ZHY4T4W
2025-03-18 04:08:26,877 - INFO - Ingress_Exit ZYISEJV3
2025-03-18 04:08:26,952 - INFO - Ingress_Exit 6ALQ7QY7
2025-03-18 04:08:26,971 - INFO - Ingress_Enter IPZFVHNV
2025-03-18 04:08:26,976 - INFO - Ingress_Enter GXGSN4E4
2025-03-18 04:08:27,117 - INFO - Ingress_Enter KS6CS7VX
2025-03-18 04:08:27,141 - INFO - Ingress_Exit YC5DGXK4
2025-03-18 04:08:27,232 - INFO - Ingress_Enter 1DWEPAKW
2025-03-18 04:08:27,257 - INFO - Ingress_Exit T5L5Y2XS
2025-03-18 04:08:27,265 - INFO - Ingress_Exit 6VEBC0JG
2025-03-18 04:08:27,288 - INFO - Ingress_Enter OBEISBWP
2025-03-18 04:08:27,324 - INFO - Ingress_Enter SHZSRLMI
2025-03-18 04:08:27,328 - INFO - Ingress_Exit IQAG613M
2025-03-18 04:08:27,431 - INFO - Ingress_Enter C9H2YQJL
2025-03-18 04:08:27,469 - INFO - Ingress_Enter MP2QM35P
2025-03-18 04:08:27,494 - INFO - Ingress_Exit YICLWLUH
2025-03-18 04:08:27,502 - INFO - Ingress_Enter T3NTZ9J4
2025-03-18 04:08:27,570 - INFO - Ingress_Enter 8Z7WXUED
2025-03-18 04:08:27,586 - INFO - Ingress_Enter 1C1RAOSZ
2025-03-18 04:08:27,653 - INFO - Ingress_Exit LH65VYAY
2025-03-18 04:08:27,725 - INFO - Ingress_Exit M8HIFNE4
2025-03-18 04:08:27,773 - INFO - Ingress_Enter WEK99IOG
2025-03-18 04:08:27,846 - INFO - Ingress_Enter R22GCJ70
2025-03-18 04:08:27,994 - INFO - Ingress_Enter KOAUH8FA
2025-03-18 04:08:28,175 - INFO - Ingress_Exit JZOBCGJG
2025-03-18 04:08:28,194 - INFO - Ingress_Exit MTP3RBXO
2025-03-18 04:08:28,296 - INFO - Ingress_Exit 6ZHY4T4W
2025-03-18 04:08:28,297 - INFO - Ingress_Exit IPZFVHNV
2025-03-18 04:08:28,398 - INFO - Ingress_Exit BZNX1362
2025-03-18 04:08:28,400 - INFO - Ingress_Exit GXGSN4E4
2025-03-18 04:08:28,401 - INFO - Ingress_Exit IPFFHNU1
2025-03-18 04:08:28,487 - INFO - Ingress_Exit OBEISBWP
2025-03-18 04:08:28,488 - INFO - Ingress_Exit SHZSRLMI
2025-03-18 04:08:28,514 - INFO - Ingress_Enter 1MF86X6B
2025-03-18 04:08:28,584 - INFO - Ingress_Exit 1DWEPAKW
2025-03-18 04:08:28,590 - INFO - Ingress_Exit KS6CS7VX
2025-03-18 04:08:28,597 - INFO - Ingress_Enter LNFKC3ZT
2025-03-18 04:08:28,677 - INFO - Ingress_Exit MP2QM35P
2025-03-18 04:08:28,727 - INFO - Ingress_Enter ZKDN2R0B
2025-03-18 04:08:28,758 - INFO - Ingress_Enter HZF71QB7
2025-03-18 04:08:28,763 - INFO - Ingress_Enter DLMRSXC3
2025-03-18 04:08:28,795 - INFO - Ingress_Enter XDMMKLLV
2025-03-18 04:08:28,805 - INFO - Ingress_Exit T3NTZ9J4
2025-03-18 04:08:28,873 - INFO - Ingress_Exit 8Z7WXUED
2025-03-18 04:08:28,887 - INFO - Ingress_Enter BPMDWA9N
2025-03-18 04:08:28,903 - INFO - Ingress_Enter 681J05Y9
2025-03-18 04:08:28,924 - INFO - Ingress_Enter 6K2GC3SH
2025-03-18 04:08:28,949 - INFO - Ingress_Enter 43DPOLSR
2025-03-18 04:08:28,959 - INFO - Ingress_Enter QSKG18SH
2025-03-18 04:08:29,006 - INFO - Ingress_Exit C9H2YQJL
2025-03-18 04:08:29,029 - INFO - Ingress_Enter 7VZQ9CJT
2025-03-18 04:08:29,060 - INFO - Ingress_Enter WTJDM4H2
2025-03-18 04:08:29,107 - INFO - Ingress_Exit 1C1RAOSZ
2025-03-18 04:08:29,122 - INFO - Ingress_Exit WEK99IOG
2025-03-18 04:08:29,222 - INFO - Ingress_Enter I9U42VBZ
2025-03-18 04:08:29,240 - INFO - Ingress_Enter FLBLEK7A
2025-03-18 04:08:29,336 - INFO - Ingress_Enter 54Z852TW
2025-03-18 04:08:29,347 - INFO - Ingress_Enter LOJCSKQH
2025-03-18 04:08:29,356 - INFO - Ingress_Enter 2OBW5ER9
2025-03-18 04:08:29,528 - INFO - Ingress_Enter TH25TAFT
2025-03-18 04:08:29,606 - INFO - Ingress_Exit KOAUH8FA
2025-03-18 04:08:29,679 - INFO - Ingress_Enter R6FVZGXY
2025-03-18 04:08:29,757 - INFO - Ingress_Exit HZF71QB7
2025-03-18 04:08:29,781 - INFO - Ingress_Enter RMZW1SRJ
2025-03-18 04:08:29,786 - INFO - Ingress_Enter SS0HMKQ0
2025-03-18 04:08:29,820 - INFO - Ingress_Exit R22GCJ70
2025-03-18 04:08:29,821 - INFO - Ingress_Exit 1MF86X6B
2025-03-18 04:08:29,823 - INFO - Ingress_Exit LNFKC3ZT
2025-03-18 04:08:29,840 - INFO - Ingress_Enter OFJXT8S3
2025-03-18 04:08:29,884 - INFO - Ingress_Enter 6CSUQZHC
2025-03-18 04:08:29,925 - INFO - Ingress_Exit DLMRSXC3
2025-03-18 04:08:29,957 - INFO - Ingress_Enter P4NUXVXF
2025-03-18 04:08:30,002 - INFO - Ingress_Enter BQEY41F4
2025-03-18 04:08:30,016 - INFO - Ingress_Exit ZKDN2R0B
2025-03-18 04:08:30,089 - INFO - Ingress_Enter 7J4LHVB7
2025-03-18 04:08:30,111 - INFO - Ingress_Exit BPMDWA9N
2025-03-18 04:08:30,113 - INFO - Ingress_Enter KJQL39MN
2025-03-18 04:08:30,171 - INFO - Ingress_Exit XDMMKLLV
2025-03-18 04:08:30,246 - INFO - Ingress_Enter UX3ORQJW
2025-03-18 04:08:30,299 - INFO - Ingress_Enter H0682NBW
2025-03-18 04:08:30,415 - INFO - Ingress_Enter WD5LFS4U
2025-03-18 04:08:30,586 - INFO - Ingress_Enter N21HB3DR
2025-03-18 04:08:30,793 - INFO - Ingress_Enter R40PNX5W
2025-03-18 04:08:31,144 - INFO - Ingress_Exit 6K2GC3SH
2025-03-18 04:08:31,184 - INFO - Ingress_Exit 681J05Y9
2025-03-18 04:08:31,185 - INFO - Ingress_Exit 43DPOLSR
2025-03-18 04:08:31,312 - INFO - Ingress_Exit QSKG18SH
2025-03-18 04:08:31,386 - INFO - Ingress_Exit 7VZQ9CJT
2025-03-18 04:08:31,388 - INFO - Ingress_Exit 2OBW5ER9
2025-03-18 04:08:31,392 - INFO - Ingress_Enter 6VKHM1VO
2025-03-18 04:08:31,447 - INFO - Ingress_Exit WTJDM4H2
2025-03-18 04:08:31,449 - INFO - Ingress_Exit LOJCSKQH
2025-03-18 04:08:31,501 - INFO - Ingress_Enter 8SL9ZOSW
2025-03-18 04:08:31,515 - INFO - Ingress_Exit I9U42VBZ
2025-03-18 04:08:31,516 - INFO - Ingress_Exit FLBLEK7A
2025-03-18 04:08:31,555 - INFO - Ingress_Enter 2GE4Q5XN
2025-03-18 04:08:31,883 - INFO - Ingress_Enter EPI9CCYB
2025-03-18 04:08:31,960 - INFO - Ingress_Enter TERZZ45R
2025-03-18 04:08:32,122 - INFO - Ingress_Exit 54Z852TW
2025-03-18 04:08:32,235 - INFO - Ingress_Enter ZQM9U80H
2025-03-18 04:08:32,379 - INFO - Ingress_Enter EOYYQPLH
2025-03-18 04:08:32,418 - INFO - Ingress_Exit TH25TAFT
2025-03-18 04:08:32,510 - INFO - Ingress_Enter 175U2RQM
2025-03-18 04:08:32,586 - INFO - Ingress_Exit OFJXT8S3
2025-03-18 04:08:32,587 - INFO - Ingress_Exit SS0HMKQ0
2025-03-18 04:08:32,591 - INFO - Ingress_Exit R6FVZGXY
2025-03-18 04:08:32,593 - INFO - Ingress_Exit BQEY41F4
2025-03-18 04:08:32,621 - INFO - Ingress_Exit RMZW1SRJ
2025-03-18 04:08:32,622 - INFO - Ingress_Exit 6CSUQZHC
2025-03-18 04:08:32,679 - INFO - Ingress_Exit UX3ORQJW
2025-03-18 04:08:32,691 - INFO - Ingress_Exit KJQL39MN
2025-03-18 04:08:32,737 - INFO - Ingress_Exit H0682NBW
2025-03-18 04:08:32,768 - INFO - Ingress_Exit WD5LFS4U
2025-03-18 04:08:32,793 - INFO - Ingress_Exit P4NUXVXF
2025-03-18 04:08:32,794 - INFO - Ingress_Exit 7J4LHVB7
2025-03-18 04:08:32,945 - INFO - Ingress_Enter M02FWXA9
2025-03-18 04:08:32,960 - INFO - Ingress_Exit N21HB3DR
2025-03-18 04:08:33,012 - INFO - Ingress_Enter GHOMBEQK
2025-03-18 04:08:33,142 - INFO - Ingress_Enter 7YXEZZ7L
2025-03-18 04:08:33,164 - INFO - Ingress_Enter SC740IGT
2025-03-18 04:08:33,192 - INFO - Ingress_Enter M5AT1Y2H
2025-03-18 04:08:33,316 - INFO - Ingress_Enter EIQU3GBL
2025-03-18 04:08:33,427 - INFO - Ingress_Enter 6M6EORT0
2025-03-18 04:08:33,445 - INFO - Ingress_Enter 2TQJ2TUR
2025-03-18 04:08:33,456 - INFO - Ingress_Enter RJZZGAXP
2025-03-18 04:08:33,470 - INFO - Ingress_Enter VUK1I7IU
2025-03-18 04:08:33,578 - INFO - Ingress_Enter P81Z7FWP
2025-03-18 04:08:33,786 - INFO - Ingress_Enter NFRSS7M4
2025-03-18 04:08:33,810 - INFO - Ingress_Enter JXHNM0BN
2025-03-18 04:08:33,882 - INFO - Ingress_Exit R40PNX5W
2025-03-18 04:08:33,886 - INFO - Ingress_Exit 6VKHM1VO
2025-03-18 04:08:33,905 - INFO - Ingress_Enter YWKKP0DZ
2025-03-18 04:08:33,912 - INFO - Ingress_Exit 2GE4Q5XN
2025-03-18 04:08:33,916 - INFO - Ingress_Exit 8SL9ZOSW
2025-03-18 04:08:34,019 - INFO - Ingress_Enter 7JL5FTX4
2025-03-18 04:08:34,049 - INFO - Ingress_Exit EPI9CCYB
2025-03-18 04:08:34,126 - INFO - Ingress_Enter WHK8SL80
2025-03-18 04:08:34,231 - INFO - Ingress_Enter WOV05Y1N
[...]
2025-03-18 04:08:41,845 - INFO - Ingress_Enter YVU60TGU
2025-03-18 04:08:41,909 - INFO - Ingress_Enter KTNKUEP9
2025-03-18 04:08:41,985 - INFO - Ingress_Enter 6MX6M65C
2025-03-18 04:08:42,032 - INFO - Ingress_Exit O88K949Y
2025-03-18 04:08:42,117 - INFO - Ingress_Enter 0M4JERMD
2025-03-18 04:08:42,190 - INFO - Ingress_Exit LGN2F473
2025-03-18 04:08:42,196 - INFO - Ingress_Enter 7LLBO41B
2025-03-18 04:08:42,236 - INFO - Ingress_Exit 9AOM9G4P
2025-03-18 04:08:42,348 - INFO - Ingress_Exit PVPSPNIT
2025-03-18 04:08:42,368 - INFO - Ingress_Exit 2EKPXYWS
2025-03-18 04:08:42,452 - INFO - Ingress_Enter T8RN765K
2025-03-18 04:08:42,599 - INFO - Ingress_Exit 2UJABOK0
2025-03-18 04:08:42,768 - INFO - Ingress_Exit 8SHRPMVD
2025-03-18 04:08:42,863 - INFO - Ingress_Enter N99KXWFM
2025-03-18 04:08:42,898 - INFO - Ingress_Enter LW2S4VEA
2025-03-18 04:08:42,923 - INFO - Ingress_Exit D8TH1REC
2025-03-18 04:08:42,945 - INFO - Ingress_Enter OKWHWKVS
2025-03-18 04:08:42,972 - INFO - Ingress_Enter PCV7HBJB
2025-03-18 04:08:43,010 - INFO - Ingress_Enter 3QZTY6NR
2025-03-18 04:08:43,021 - INFO - Ingress_Enter HG1UG6P6
2025-03-18 04:08:43,038 - INFO - Ingress_Exit TRPEVBXJ
2025-03-18 04:08:43,127 - INFO - Ingress_Exit 0JXLZ6FZ
2025-03-18 04:08:43,129 - INFO - Ingress_Exit BU3T90CX
2025-03-18 04:08:43,131 - INFO - Ingress_Exit 0GEJ31XZ
2025-03-18 04:08:43,171 - INFO - Ingress_Exit 8FW0D2EB
2025-03-18 04:08:43,172 - INFO - Ingress_Exit T135UZEL
2025-03-18 04:08:43,173 - INFO - Ingress_Exit 3QYYDEPY
2025-03-18 04:08:43,188 - INFO - Ingress_Exit XWBKOWG3
2025-03-18 04:08:43,333 - INFO - Ingress_Enter ARHWA8K9
2025-03-18 04:08:43,364 - INFO - Ingress_Enter NX5F6I9Q
2025-03-18 04:08:43,400 - INFO - Ingress_Exit H8WPJOKA
2025-03-18 04:08:43,402 - INFO - Ingress_Enter OUWOW77C
2025-03-18 04:08:43,412 - INFO - Ingress_Enter SWT0RTMA
2025-03-18 04:08:43,436 - INFO - Ingress_Exit YVU60TGU
2025-03-18 04:08:43,455 - INFO - Ingress_Enter DQV5G3L1
2025-03-18 04:08:43,518 - INFO - Ingress_Enter QI8B8HGT
2025-03-18 04:08:43,555 - INFO - Ingress_Exit 25JB1JJX
2025-03-18 04:08:43,578 - INFO - Ingress_Enter MNU4913Q
2025-03-18 04:08:43,626 - INFO - Ingress_Enter 2EFAPWKQ
2025-03-18 04:08:43,776 - INFO - Ingress_Enter LW7J2UXS
2025-03-18 04:08:43,828 - INFO - Ingress_Enter WV4ZZ9EX
2025-03-18 04:08:43,838 - INFO - Ingress_Enter O2LDAIHR
2025-03-18 04:08:43,880 - INFO - Ingress_Enter MWHSI951
2025-03-18 04:08:43,944 - INFO - Ingress_Enter E9W7MWUN
2025-03-18 04:08:44,030 - INFO - Ingress_Exit 7LLBO41B
2025-03-18 04:08:44,057 - INFO - Ingress_Exit 6MX6M65C
2025-03-18 04:08:44,058 - INFO - Ingress_Exit 0M4JERMD
2025-03-18 04:08:44,205 - INFO - Ingress_Exit KTNKUEP9
2025-03-18 04:08:44,207 - INFO - Ingress_Exit T8RN765K
2025-03-18 04:08:44,243 - INFO - Ingress_Exit N99KXWFM
2025-03-18 04:08:44,270 - INFO - Ingress_Exit 3QZTY6NR
2025-03-18 04:08:44,307 - INFO - Ingress_Exit LW2S4VEA
2025-03-18 04:08:44,328 - INFO - Ingress_Enter L4HX51GO
2025-03-18 04:08:44,334 - INFO - Ingress_Exit HG1UG6P6
2025-03-18 04:08:44,348 - INFO - Ingress_Enter XKPMRHP0
2025-03-18 04:08:44,354 - INFO - Ingress_Enter TEPJ0JJF
2025-03-18 04:08:44,406 - INFO - Ingress_Exit OKWHWKVS
2025-03-18 04:08:44,437 - INFO - Ingress_Exit ARHWA8K9
2025-03-18 04:08:44,496 - INFO - Ingress_Exit PCV7HBJB
2025-03-18 04:08:44,504 - INFO - Ingress_Enter D0LKTSIB
2025-03-18 04:08:44,556 - INFO - Ingress_Enter YSPARD1I
2025-03-18 04:08:44,673 - INFO - Ingress_Exit NX5F6I9Q
2025-03-18 04:08:44,771 - INFO - Ingress_Enter WSWTLDZC
2025-03-18 04:08:44,779 - INFO - Ingress_Enter V7SR3HXC
2025-03-18 04:08:44,800 - INFO - Ingress_Enter HSRLT6CG
2025-03-18 04:08:44,816 - INFO - Ingress_Enter 35L2XRQB
2025-03-18 04:08:44,832 - INFO - Ingress_Enter 7IXY69YZ
2025-03-18 04:08:44,858 - INFO - Ingress_Enter EELZRAGO
2025-03-18 04:08:44,975 - INFO - Ingress_Exit OUWOW77C
2025-03-18 04:08:45,243 - INFO - Ingress_Enter BW1OUF7X
2025-03-18 04:08:45,344 - INFO - Ingress_Enter 7ABRNFLR
2025-03-18 04:08:45,453 - INFO - Ingress_Exit MNU4913Q
2025-03-18 04:08:45,490 - INFO - Ingress_Exit DQV5G3L1
2025-03-18 04:08:45,579 - INFO - Ingress_Exit 2EFAPWKQ
2025-03-18 04:08:45,627 - INFO - Ingress_Exit QI8B8HGT
2025-03-18 04:08:45,628 - INFO - Ingress_Exit LW7J2UXS
2025-03-18 04:08:45,645 - INFO - Ingress_Exit SWT0RTMA
2025-03-18 04:08:45,647 - INFO - Ingress_Exit WV4ZZ9EX
2025-03-18 04:08:45,649 - INFO - Ingress_Exit O2LDAIHR
2025-03-18 04:08:45,706 - INFO - Ingress_Exit MWHSI951
2025-03-18 04:08:45,822 - INFO - Ingress_Enter NU4XRWBA
2025-03-18 04:08:45,896 - INFO - Ingress_Exit L4HX51GO
2025-03-18 04:08:45,950 - INFO - Ingress_Enter 7V3KBNZ1
2025-03-18 04:08:45,972 - INFO - Ingress_Enter OHAU0I7O
2025-03-18 04:08:45,981 - INFO - Ingress_Enter S1YCNCLF
2025-03-18 04:08:45,990 - INFO - Ingress_Enter IC82VW5Q
2025-03-18 04:08:46,052 - INFO - Ingress_Exit E9W7MWUN
2025-03-18 04:08:46,072 - INFO - Ingress_Exit XKPMRHP0
2025-03-18 04:08:46,105 - INFO - Ingress_Exit TEPJ0JJF
2025-03-18 04:08:46,218 - INFO - Ingress_Exit D0LKTSIB
2025-03-18 04:08:46,219 - INFO - Ingress_Exit YSPARD1I
2025-03-18 04:08:46,507 - INFO - Ingress_Exit WSWTLDZC
2025-03-18 04:08:46,587 - INFO - Ingress_Exit V7SR3HXC
2025-03-18 04:08:46,795 - INFO - Ingress_Exit HSRLT6CG
2025-03-18 04:08:46,936 - INFO - Ingress_Exit EELZRAGO
2025-03-18 04:08:47,130 - INFO - Ingress_Exit 35L2XRQB
2025-03-18 04:08:47,131 - INFO - Ingress_Exit 7IXY69YZ
2025-03-18 04:08:47,275 - INFO - Ingress_Exit BW1OUF7X
2025-03-18 04:08:47,358 - INFO - Ingress_Exit 7ABRNFLR
2025-03-18 04:08:47,956 - INFO - Ingress_Enter 7A9IWYCV
2025-03-18 04:08:48,004 - INFO - Ingress_Enter P0CJ0ZBF
2025-03-18 04:08:48,015 - INFO - Ingress_Enter 7A5WU56O
2025-03-18 04:08:48,111 - INFO - Ingress_Enter LR2YK91X
2025-03-18 04:08:48,129 - INFO - Ingress_Enter 0N3Y5W1I
2025-03-18 04:08:48,154 - INFO - Ingress_Enter N24M64V9
2025-03-18 04:08:48,225 - INFO - Ingress_Enter WR9I7BPO
2025-03-18 04:08:48,289 - INFO - Ingress_Enter XEI9V915
2025-03-18 04:08:48,306 - INFO - Ingress_Enter WHHRZBDN
2025-03-18 04:08:48,315 - INFO - Ingress_Enter 96E255PV
2025-03-18 04:08:48,433 - INFO - Ingress_Enter JV6GGZDP
2025-03-18 04:08:48,488 - INFO - Ingress_Enter 8S8FAWIT
2025-03-18 04:08:48,515 - INFO - Ingress_Enter 7RGONE5X
2025-03-18 04:08:48,926 - INFO - Ingress_Exit NU4XRWBA
2025-03-18 04:08:49,122 - INFO - Ingress_Enter P821DY8R
2025-03-18 04:08:49,272 - INFO - Ingress_Enter FEB0XDL3
2025-03-18 04:08:49,948 - INFO - Ingress_Exit S1YCNCLF
2025-03-18 04:08:49,981 - INFO - Ingress_Exit 7V3KBNZ1
2025-03-18 04:08:49,982 - INFO - Ingress_Exit OHAU0I7O
2025-03-18 04:08:50,308 - INFO - Ingress_Exit IC82VW5Q
2025-03-18 04:08:50,357 - INFO - Ingress_Exit 7A9IWYCV
2025-03-18 04:08:50,499 - INFO - Ingress_Exit 7A5WU56O
2025-03-18 04:08:50,519 - INFO - Ingress_Exit P0CJ0ZBF
2025-03-18 04:08:50,520 - INFO - Ingress_Exit LR2YK91X
2025-03-18 04:08:50,554 - INFO - Ingress_Exit WR9I7BPO
2025-03-18 04:08:50,563 - INFO - Ingress_Exit N24M64V9
2025-03-18 04:08:50,564 - INFO - Ingress_Exit XEI9V915
2025-03-18 04:08:50,587 - INFO - Ingress_Exit 0N3Y5W1I
2025-03-18 04:08:50,647 - INFO - Ingress_Exit WHHRZBDN
2025-03-18 04:08:51,118 - INFO - Ingress_Exit 96E255PV
2025-03-18 04:08:51,263 - INFO - Ingress_Exit JV6GGZDP
2025-03-18 04:08:51,459 - INFO - Ingress_Exit 7RGONE5X
2025-03-18 04:08:51,578 - INFO - Ingress_Exit 8S8FAWIT
2025-03-18 04:08:51,925 - INFO - Ingress_Exit P821DY8R
2025-03-18 04:08:55,078 - INFO - Ingress_Enter 7ZSMWEHP
2025-03-18 04:08:55,207 - INFO - Ingress_Enter 3LXBNEXG
2025-03-18 04:08:55,222 - INFO - Ingress_Enter 13F2M5J8
2025-03-18 04:08:55,328 - INFO - Ingress_Enter GGP26ILU
2025-03-18 04:08:55,340 - INFO - Ingress_Enter 0BKO2U3R
2025-03-18 04:08:55,344 - INFO - Ingress_Enter FXHB3WBL
2025-03-18 04:08:55,482 - INFO - Ingress_Enter N8B4M83E
2025-03-18 04:08:55,493 - INFO - Ingress_Enter YT8JH6ED
2025-03-18 04:08:55,504 - INFO - Ingress_Enter Z8WSV6PT
2025-03-18 04:08:55,515 - INFO - Ingress_Enter QGNGDIH3
2025-03-18 04:08:55,518 - INFO - Ingress_Enter PKOH44TU
2025-03-18 04:08:55,642 - INFO - Ingress_Enter P6HEYCKK
2025-03-18 04:08:55,657 - INFO - Ingress_Enter M38CBEU7
2025-03-18 04:08:55,765 - INFO - Ingress_Enter 511XVD18
2025-03-18 04:08:55,989 - INFO - Ingress_Enter RIJEETD1
2025-03-18 04:08:56,047 - INFO - Ingress_Enter NDW3U9B5
2025-03-18 04:08:56,094 - INFO - Ingress_Enter DTK588JA
2025-03-18 04:08:56,096 - INFO - Ingress_Exit FEB0XDL3
2025-03-18 04:08:56,210 - INFO - Ingress_Exit 7ZSMWEHP
2025-03-18 04:08:56,224 - INFO - Ingress_Exit 3LXBNEXG
2025-03-18 04:08:56,226 - INFO - Ingress_Enter I82F54UX
2025-03-18 04:08:56,317 - INFO - Ingress_Enter UDJTBKHH
2025-03-18 04:08:56,334 - INFO - Ingress_Enter 43NEVVEG
2025-03-18 04:08:56,387 - INFO - Ingress_Exit FXHB3WBL
2025-03-18 04:08:56,425 - INFO - Ingress_Enter BN6RLOCV
2025-03-18 04:08:56,425 - INFO - Ingress_Exit YT8JH6ED
2025-03-18 04:08:56,463 - INFO - Ingress_Enter I0HLYWTG
2025-03-18 04:08:56,474 - INFO - Ingress_Enter JRC0COZM
2025-03-18 04:08:56,532 - INFO - Ingress_Enter XUF3IKD1
2025-03-18 04:08:56,534 - INFO - Ingress_Exit N8B4M83E
2025-03-18 04:08:56,575 - INFO - Ingress_Enter M6HA2TCM
2025-03-18 04:08:56,582 - INFO - Ingress_Enter 7AXSUCJ7
2025-03-18 04:08:56,587 - INFO - Ingress_Enter MAUO2HWV
2025-03-18 04:08:56,657 - INFO - Ingress_Exit GGP26ILU
2025-03-18 04:08:56,658 - INFO - Ingress_Exit 0BKO2U3R
2025-03-18 04:08:56,672 - INFO - Ingress_Exit 13F2M5J8
2025-03-18 04:08:56,752 - INFO - Ingress_Exit Z8WSV6PT
2025-03-18 04:08:56,926 - INFO - Ingress_Enter QCG3R3UU
2025-03-18 04:08:56,941 - INFO - Ingress_Enter B996YIT1
2025-03-18 04:08:56,972 - INFO - Ingress_Exit PKOH44TU
2025-03-18 04:08:57,006 - INFO - Ingress_Enter YEF4XBHU
2025-03-18 04:08:57,097 - INFO - Ingress_Exit P6HEYCKK
2025-03-18 04:08:57,115 - INFO - Ingress_Enter UAVAW5UK
2025-03-18 04:08:57,174 - INFO - Ingress_Enter 2J2TEYU0
2025-03-18 04:08:57,179 - INFO - Ingress_Exit QGNGDIH3
2025-03-18 04:08:57,186 - INFO - Ingress_Exit M38CBEU7
2025-03-18 04:08:57,210 - INFO - Ingress_Enter 11ZS9HWO
2025-03-18 04:08:57,317 - INFO - Ingress_Enter VAA1YFBN
2025-03-18 04:08:57,343 - INFO - Ingress_Enter TCUBE6QK
2025-03-18 04:08:57,347 - INFO - Ingress_Enter P1QETC4O
2025-03-18 04:08:57,359 - INFO - Ingress_Enter 4FAFWHFL
2025-03-18 04:08:57,452 - INFO - Ingress_Exit 511XVD18
2025-03-18 04:08:57,592 - INFO - Ingress_Exit RIJEETD1
2025-03-18 04:08:57,659 - INFO - Ingress_Exit 43NEVVEG
2025-03-18 04:08:57,667 - INFO - Ingress_Exit NDW3U9B5
2025-03-18 04:08:57,668 - INFO - Ingress_Exit DTK588JA
2025-03-18 04:08:57,726 - INFO - Ingress_Exit BN6RLOCV
2025-03-18 04:08:57,750 - INFO - Ingress_Exit UDJTBKHH
2025-03-18 04:08:57,751 - INFO - Ingress_Exit I82F54UX
2025-03-18 04:08:57,926 - INFO - Ingress_Enter 8305HN8J
2025-03-18 04:08:57,956 - INFO - Ingress_Exit I0HLYWTG
2025-03-18 04:08:58,052 - INFO - Ingress_Enter 4UPIYI0X
2025-03-18 04:08:58,125 - INFO - Ingress_Enter CERIZQPT
2025-03-18 04:08:58,236 - INFO - Ingress_Enter OYU0QC3B
2025-03-18 04:08:58,289 - INFO - Ingress_Enter 310IN15H
2025-03-18 04:08:58,379 - INFO - Ingress_Enter ZLMPGOH7
2025-03-18 04:08:58,734 - INFO - Ingress_Enter R73FWLW9
2025-03-18 04:08:58,916 - INFO - Ingress_Enter YS4HZ5D3
2025-03-18 04:08:59,269 - INFO - Ingress_Enter BBL80WNH
2025-03-18 04:08:59,316 - INFO - Ingress_Enter HVA6OL3J
2025-03-18 04:08:59,443 - INFO - Ingress_Enter 953IZJI2
2025-03-18 04:08:59,537 - INFO - Ingress_Enter I5TBD62M
2025-03-18 04:08:59,642 - INFO - Ingress_Exit JRC0COZM
2025-03-18 04:08:59,756 - INFO - Ingress_Exit M6HA2TCM
2025-03-18 04:08:59,768 - INFO - Ingress_Exit XUF3IKD1
2025-03-18 04:09:01,140 - INFO - Ingress_Exit MAUO2HWV
2025-03-18 04:09:01,157 - INFO - Ingress_Exit 7AXSUCJ7
2025-03-18 04:09:01,159 - INFO - Ingress_Exit QCG3R3UU
2025-03-18 04:09:01,360 - INFO - Ingress_Exit YEF4XBHU
2025-03-18 04:09:01,395 - INFO - Ingress_Exit 2J2TEYU0
2025-03-18 04:09:02,056 - INFO - Ingress_Exit B996YIT1
2025-03-18 04:09:02,115 - INFO - Ingress_Exit UAVAW5UK
2025-03-18 04:09:02,448 - INFO - Ingress_Exit OYU0QC3B
2025-03-18 04:09:02,450 - INFO - Ingress_Exit P1QETC4O
2025-03-18 04:09:02,474 - INFO - Ingress_Exit TCUBE6QK
2025-03-18 04:09:02,476 - INFO - Ingress_Exit 11ZS9HWO
2025-03-18 04:09:02,477 - INFO - Ingress_Exit 4FAFWHFL
2025-03-18 04:09:02,500 - INFO - Ingress_Exit CERIZQPT
2025-03-18 04:09:02,594 - INFO - Ingress_Exit VAA1YFBN
2025-03-18 04:09:02,598 - INFO - Ingress_Exit 8305HN8J
2025-03-18 04:09:02,761 - INFO - Ingress_Exit 4UPIYI0X
2025-03-18 04:09:02,762 - INFO - Ingress_Exit 310IN15H
2025-03-18 04:09:03,143 - INFO - Ingress_Exit ZLMPGOH7
2025-03-18 04:09:03,340 - INFO - Ingress_Exit YS4HZ5D3
2025-03-18 04:09:03,351 - INFO - Ingress_Exit R73FWLW9
2025-03-18 04:09:03,406 - INFO - Ingress_Exit BBL80WNH
2025-03-18 04:09:03,863 - INFO - Ingress_Enter T8OIWCJE
2025-03-18 04:09:03,898 - INFO - Ingress_Enter E7GVJWMV
2025-03-18 04:09:03,961 - INFO - Ingress_Enter GBI4K04I
2025-03-18 04:09:03,971 - INFO - Ingress_Enter 3LIO8PHB
2025-03-18 04:09:04,066 - INFO - Ingress_Enter 4O0GA6F3
2025-03-18 04:09:04,115 - INFO - Ingress_Enter 4V94X463
2025-03-18 04:09:04,126 - INFO - Ingress_Enter 39BPCF6P
2025-03-18 04:09:04,131 - INFO - Ingress_Enter VIVK7832
2025-03-18 04:09:04,153 - INFO - Ingress_Enter TUU43MQ9
2025-03-18 04:09:04,199 - INFO - Ingress_Enter NHKVCJQ2
2025-03-18 04:09:04,306 - INFO - Ingress_Enter H8DR8COQ
2025-03-18 04:09:04,326 - INFO - Ingress_Enter WWGHBUR0
2025-03-18 04:09:04,334 - INFO - Ingress_Enter 5VVPAG77
2025-03-18 04:09:04,350 - INFO - Ingress_Enter RPJ0Q5RG
2025-03-18 04:09:04,371 - INFO - Ingress_Enter JJC4D11X
2025-03-18 04:09:04,412 - INFO - Ingress_Enter 645Q9O2Y
2025-03-18 04:09:04,431 - INFO - Ingress_Enter YY1YO6A1
2025-03-18 04:09:04,500 - INFO - Ingress_Enter HOXUIXTB
2025-03-18 04:09:04,602 - INFO - Ingress_Enter 22ZH0071
2025-03-18 04:09:04,663 - INFO - Ingress_Enter V0P0ZK3A
2025-03-18 04:09:04,815 - INFO - Ingress_Exit HVA6OL3J
2025-03-18 04:09:04,928 - INFO - Ingress_Enter PUH1QW3I
2025-03-18 04:09:05,020 - INFO - Ingress_Exit 953IZJI2
2025-03-18 04:09:05,148 - INFO - Ingress_Exit I5TBD62M
2025-03-18 04:09:05,149 - INFO - Ingress_Exit T8OIWCJE
2025-03-18 04:09:05,151 - INFO - Ingress_Exit E7GVJWMV
2025-03-18 04:09:05,165 - INFO - Ingress_Enter 5B7QM7L5
2025-03-18 04:09:05,253 - INFO - Ingress_Enter LT8QWDL2
2025-03-18 04:09:05,316 - INFO - Ingress_Enter 57SGOEKK
2025-03-18 04:09:05,364 - INFO - Ingress_Enter XHR81D96
2025-03-18 04:09:05,549 - INFO - Ingress_Enter DT8TKNFZ
2025-03-18 04:09:05,611 - INFO - Ingress_Enter ALTOZOPB
2025-03-18 04:09:05,905 - INFO - Ingress_Enter 4HCZZ0Y5
2025-03-18 04:09:05,917 - INFO - Ingress_Exit GBI4K04I
2025-03-18 04:09:06,039 - INFO - Ingress_Exit 3LIO8PHB
2025-03-18 04:09:06,040 - INFO - Ingress_Exit 4O0GA6F3
2025-03-18 04:09:06,044 - INFO - Ingress_Exit 4V94X463
2025-03-18 04:09:06,046 - INFO - Ingress_Exit VIVK7832
2025-03-18 04:09:06,083 - INFO - Ingress_Exit NHKVCJQ2
2025-03-18 04:09:06,091 - INFO - Ingress_Enter MSJK3S1T
2025-03-18 04:09:06,119 - INFO - Ingress_Exit WWGHBUR0
2025-03-18 04:09:06,140 - INFO - Ingress_Exit JJC4D11X
2025-03-18 04:09:06,140 - INFO - Ingress_Exit H8DR8COQ
2025-03-18 04:09:06,175 - INFO - Ingress_Exit 39BPCF6P
2025-03-18 04:09:06,296 - INFO - Ingress_Enter IPWNGT3B
2025-03-18 04:09:06,300 - INFO - Ingress_Enter P11ES9C7
2025-03-18 04:09:06,307 - INFO - Ingress_Enter TTDWAL90
2025-03-18 04:09:06,316 - INFO - Ingress_Exit 5VVPAG77
2025-03-18 04:09:06,317 - INFO - Ingress_Exit RPJ0Q5RG
2025-03-18 04:09:06,328 - INFO - Ingress_Enter Q2UP68FP
2025-03-18 04:09:06,387 - INFO - Ingress_Exit TUU43MQ9
2025-03-18 04:09:06,508 - INFO - Ingress_Enter 4NTO6QBN
2025-03-18 04:09:06,524 - INFO - Ingress_Enter V9W47QCB
2025-03-18 04:09:06,563 - INFO - Ingress_Enter JH1Z3V1U
2025-03-18 04:09:06,584 - INFO - Ingress_Enter CII6UE8I
2025-03-18 04:09:06,682 - INFO - Ingress_Enter L8LU0J85
2025-03-18 04:09:07,678 - INFO - Ingress_Enter GWZNUE1L
2025-03-18 04:09:07,721 - INFO - Ingress_Enter DU4YNYCN
2025-03-18 04:09:07,884 - INFO - Ingress_Enter 7P2XW5DO
2025-03-18 04:09:07,947 - INFO - Ingress_Enter B4AKTLLT
2025-03-18 04:09:08,031 - INFO - Ingress_Exit YY1YO6A1
2025-03-18 04:09:08,117 - INFO - Ingress_Exit 645Q9O2Y
2025-03-18 04:09:08,118 - INFO - Ingress_Exit HOXUIXTB
2025-03-18 04:09:08,150 - INFO - Ingress_Exit 22ZH0071
2025-03-18 04:09:08,188 - INFO - Ingress_Exit V0P0ZK3A
2025-03-18 04:09:08,205 - INFO - Ingress_Exit PUH1QW3I
2025-03-18 04:09:08,280 - INFO - Ingress_Exit 5B7QM7L5
2025-03-18 04:09:08,552 - INFO - Ingress_Exit LT8QWDL2
2025-03-18 04:09:08,645 - INFO - Ingress_Exit DT8TKNFZ
2025-03-18 04:09:08,655 - INFO - Ingress_Exit MSJK3S1T
2025-03-18 04:09:08,740 - INFO - Ingress_Exit ALTOZOPB
2025-03-18 04:09:08,740 - INFO - Ingress_Exit XHR81D96
2025-03-18 04:09:08,797 - INFO - Ingress_Exit 4HCZZ0Y5
2025-03-18 04:09:08,798 - INFO - Ingress_Exit 57SGOEKK
2025-03-18 04:09:08,939 - INFO - Ingress_Exit P11ES9C7
2025-03-18 04:09:08,940 - INFO - Ingress_Exit TTDWAL90
2025-03-18 04:09:08,940 - INFO - Ingress_Exit IPWNGT3B
2025-03-18 04:09:10,055 - INFO - Ingress_Exit Q2UP68FP
2025-03-18 04:09:10,238 - INFO - Ingress_Exit 4NTO6QBN
2025-03-18 04:09:10,256 - INFO - Ingress_Exit JH1Z3V1U
2025-03-18 04:09:10,312 - INFO - Ingress_Enter 2XVOH9U6
2025-03-18 04:09:10,334 - INFO - Ingress_Enter ZXYVB6FY
2025-03-18 04:09:10,347 - INFO - Ingress_Enter YPL9Z26O
2025-03-18 04:09:10,375 - INFO - Ingress_Exit V9W47QCB
2025-03-18 04:09:10,450 - INFO - Ingress_Enter 8RXCB2RP
2025-03-18 04:09:10,532 - INFO - Ingress_Enter IUO6LNID
2025-03-18 04:09:10,580 - INFO - Ingress_Enter OJTFWY8V
2025-03-18 04:09:10,586 - INFO - Ingress_Enter Q6WR502D
2025-03-18 04:09:10,601 - INFO - Ingress_Enter FM9BWKH5
2025-03-18 04:09:10,606 - INFO - Ingress_Enter XUXE4WO0
2025-03-18 04:09:10,638 - INFO - Ingress_Enter GQHLMB3G
2025-03-18 04:09:10,668 - INFO - Ingress_Enter H3WRIH1T
2025-03-18 04:09:10,732 - INFO - Ingress_Enter GQB633CE
2025-03-18 04:09:10,829 - INFO - Ingress_Enter IR9GLAJK
2025-03-18 04:09:10,899 - INFO - Ingress_Enter LA2EFHPW
2025-03-18 04:09:10,914 - INFO - Ingress_Enter HSKXNJHV
2025-03-18 04:09:10,967 - INFO - Ingress_Enter NQFB0W8A
2025-03-18 04:09:11,016 - INFO - Ingress_Enter DBDV6013
2025-03-18 04:09:11,130 - INFO - Ingress_Enter 5LE7SMHL
2025-03-18 04:09:11,146 - INFO - Ingress_Enter 20DOBNVU
2025-03-18 04:09:11,156 - INFO - Ingress_Enter 7W1LDUW2
2025-03-18 04:09:11,193 - INFO - Ingress_Enter B6NB8NS0
2025-03-18 04:09:11,524 - INFO - Ingress_Enter AHUDS36Z
2025-03-18 04:09:13,150 - INFO - Ingress_Exit 7P2XW5DO
2025-03-18 04:09:13,236 - INFO - Ingress_Exit DU4YNYCN
2025-03-18 04:09:13,237 - INFO - Ingress_Exit YPL9Z26O
2025-03-18 04:09:13,238 - INFO - Ingress_Exit CII6UE8I
2025-03-18 04:09:13,239 - INFO - Ingress_Exit L8LU0J85
2025-03-18 04:09:13,501 - INFO - Ingress_Exit GWZNUE1L
2025-03-18 04:09:13,502 - INFO - Ingress_Exit B4AKTLLT
2025-03-18 04:09:14,175 - INFO - Ingress_Exit 2XVOH9U6
2025-03-18 04:09:14,252 - INFO - Ingress_Exit OJTFWY8V
2025-03-18 04:09:14,336 - INFO - Ingress_Exit H3WRIH1T
2025-03-18 04:09:14,336 - INFO - Ingress_Exit IR9GLAJK
2025-03-18 04:09:14,348 - INFO - Ingress_Exit 8RXCB2RP
2025-03-18 04:09:14,407 - INFO - Ingress_Exit GQHLMB3G
2025-03-18 04:09:14,416 - INFO - Ingress_Exit IUO6LNID
2025-03-18 04:09:14,439 - INFO - Ingress_Exit Q6WR502D
2025-03-18 04:09:14,439 - INFO - Ingress_Exit ZXYVB6FY
2025-03-18 04:09:16,311 - INFO - Ingress_Exit FM9BWKH5
2025-03-18 04:09:16,379 - INFO - Ingress_Exit LA2EFHPW
2025-03-18 04:09:16,478 - INFO - Ingress_Exit HSKXNJHV
2025-03-18 04:09:16,819 - INFO - Ingress_Exit NQFB0W8A
2025-03-18 04:09:16,876 - INFO - Ingress_Exit XUXE4WO0
2025-03-18 04:09:16,877 - INFO - Ingress_Exit GQB633CE
2025-03-18 04:09:17,601 - INFO - Ingress_Exit DBDV6013
2025-03-18 04:09:17,602 - INFO - Ingress_Exit 5LE7SMHL
2025-03-18 04:09:17,853 - INFO - Ingress_Exit B6NB8NS0
2025-03-18 04:09:17,905 - INFO - Ingress_Exit AHUDS36Z
2025-03-18 04:09:17,908 - INFO - Ingress_Exit 7W1LDUW2
2025-03-18 04:09:17,921 - INFO - Ingress_Exit 20DOBNVU
